Cisplatin
Actelion Java MolfileCreator 2.0

  0  0  0  0  0  0              0 V3000
M  V30 BEGIN CTAB
M  V30 COUNTS 5 4 0 0 0
M  V30 BEGIN ATOM
M  V30 1 Pt 0.866 0.0 0.0 0
M  V30 2 Cl 1.732 -0.5 0.0 0
M  V30 3 Cl 0.866 1.0 0.0 0
M  V30 4 N 0.866 -1.0 0.0 0
M  V30 5 N 0.0 -0.5 0.0 0
M  V30 END ATOM
M  V30 BEGIN BOND
M  V30 1 1 1 2
M  V30 2 1 1 3
M  V30 3 1 1 4
M  V30 4 1 1 5
M  V30 END BOND
M  V30 END CTAB
M  END
>  <Drug Name>
Cisplatin

>  <Carbon Count>
0

>  <SMILES String>
Cl[Pt]([NH3])([NH3])Cl

$$$$
Oxaliplatin
Actelion Java MolfileCreator 2.0

  0  0  0  0  0  0              0 V3000
M  V30 BEGIN CTAB
M  V30 COUNTS 15 17 0 0 0
M  V30 BEGIN ATOM
M  V30 1 Pt 2.923 1.8036 0.0 0
M  V30 2 O 1.4558 1.4917 0.0 0
M  V30 3 O 3.673 0.5046 0.0 0
M  V30 4 N 4.3902 2.1155 0.0 0 VAL=4
M  V30 5 N 2.173 3.1026 0.0 0 VAL=4
M  V30 6 C 1.299 0.0 0.0 0
M  V30 7 C 2.6693 -0.6101 0.0 0
M  V30 8 C 4.547 3.6073 0.0 0 CFG=2
M  V30 9 C 3.1767 4.2174 0.0 0 CFG=2
M  V30 10 O 0.0 -0.75 0.0 0
M  V30 11 O 2.9812 -2.0773 0.0 0
M  V30 12 C 5.7605 4.4889 0.0 0
M  V30 13 C 3.0199 5.7091 0.0 0
M  V30 14 C 5.6037 5.9807 0.0 0
M  V30 15 C 4.2334 6.5908 0.0 0
M  V30 END ATOM
M  V30 BEGIN BOND
M  V30 1 1 1 2
M  V30 2 1 1 3
M  V30 3 1 1 4
M  V30 4 1 1 5
M  V30 5 1 2 6
M  V30 6 1 3 7
M  V30 7 1 8 4 CFG=3
M  V30 8 1 9 5 CFG=1
M  V30 9 2 6 10
M  V30 10 2 7 11
M  V30 11 1 8 12
M  V30 12 1 9 13
M  V30 13 1 12 14
M  V30 14 1 13 15
M  V30 15 1 6 7
M  V30 16 1 8 9
M  V30 17 1 14 15
M  V30 END BOND
M  V30 BEGIN COLLECTION
M  V30 MDLV30/STERAC1 ATOMS=(2 8 9)
M  V30 END COLLECTION
M  V30 END CTAB
M  END
>  <Drug Name>
Oxaliplatin

>  <Carbon Count>
2

>  <SMILES String>
O=C1C(O[Pt]O1)=O

$$$$
Hydroquinone
Actelion Java MolfileCreator 2.0

  0  0  0  0  0  0              0 V3000
M  V30 BEGIN CTAB
M  V30 COUNTS 8 8 0 0 0
M  V30 BEGIN ATOM
M  V30 1 O 1.299 0.0 0.0 0
M  V30 2 C 0.0 -0.75 0.0 0
M  V30 3 C -1.299 0.0 0.0 0
M  V30 4 C 0.0 -2.25 0.0 0
M  V30 5 C -2.598 -0.7499 0.0 0
M  V30 6 C -1.299 -2.9999 0.0 0
M  V30 7 C -2.598 -2.2499 0.0 0
M  V30 8 O -3.8971 -2.9999 0.0 0
M  V30 END ATOM
M  V30 BEGIN BOND
M  V30 1 1 1 2
M  V30 2 2 2 3
M  V30 3 1 2 4
M  V30 4 1 3 5
M  V30 5 2 4 6
M  V30 6 2 5 7
M  V30 7 1 7 8
M  V30 8 1 6 7
M  V30 END BOND
M  V30 END CTAB
M  END
>  <Drug Name>
Hydroquinone

>  <Carbon Count>
6

>  <SMILES String>
OC1=CC=C(O)C=C1

$$$$
Mesna
Actelion Java MolfileCreator 2.0

  0  0  0  0  0  0              0 V3000
M  V30 BEGIN CTAB
M  V30 COUNTS 7 6 0 0 0
M  V30 BEGIN ATOM
M  V30 1 S 2.598 0.0 0.0 0
M  V30 2 O 3.098 -0.866 0.0 0
M  V30 3 O 2.098 0.866 0.0 0
M  V30 4 O 3.4641 0.5 0.0 0
M  V30 5 C 1.732 -0.5 0.0 0
M  V30 6 C 0.866 0.0 0.0 0
M  V30 7 S 0.0 -0.5 0.0 0
M  V30 END ATOM
M  V30 BEGIN BOND
M  V30 1 2 1 2
M  V30 2 2 1 3
M  V30 3 1 1 4
M  V30 4 1 1 5
M  V30 5 1 5 6
M  V30 6 1 6 7
M  V30 END BOND
M  V30 END CTAB
M  END
>  <Drug Name>
Mesna

>  <Carbon Count>
2

>  <SMILES String>
SCCS(=O)(O[Na])=O

$$$$
Chlormethine
Actelion Java MolfileCreator 2.0

  0  0  0  0  0  0              0 V3000
M  V30 BEGIN CTAB
M  V30 COUNTS 8 7 0 0 0
M  V30 BEGIN ATOM
M  V30 1 Cl 5.1961 -0.5 0.0 0
M  V30 2 C 4.3301 0.0 0.0 0
M  V30 3 C 3.4641 -0.5 0.0 0
M  V30 4 N 2.598 0.0 0.0 0
M  V30 5 C 1.732 -0.5 0.0 0
M  V30 6 C 2.598 1.0 0.0 0
M  V30 7 C 0.866 0.0 0.0 0
M  V30 8 Cl 0.0 -0.5 0.0 0
M  V30 END ATOM
M  V30 BEGIN BOND
M  V30 1 1 1 2
M  V30 2 1 2 3
M  V30 3 1 3 4
M  V30 4 1 4 5
M  V30 5 1 4 6
M  V30 6 1 5 7
M  V30 7 1 7 8
M  V30 END BOND
M  V30 END CTAB
M  END
>  <Drug Name>
Chlormethine

>  <Carbon Count>
5

>  <SMILES String>
ClCCN(CCCl)C

$$$$
Chlormethine
Actelion Java MolfileCreator 2.0

  0  0  0  0  0  0              0 V3000
M  V30 BEGIN CTAB
M  V30 COUNTS 8 7 0 0 0
M  V30 BEGIN ATOM
M  V30 1 Cl 5.1961 -0.5 0.0 0
M  V30 2 C 4.3301 0.0 0.0 0
M  V30 3 C 3.4641 -0.5 0.0 0
M  V30 4 N 2.598 0.0 0.0 0
M  V30 5 C 1.732 -0.5 0.0 0
M  V30 6 C 2.598 1.0 0.0 0
M  V30 7 C 0.866 0.0 0.0 0
M  V30 8 Cl 0.0 -0.5 0.0 0
M  V30 END ATOM
M  V30 BEGIN BOND
M  V30 1 1 1 2
M  V30 2 1 2 3
M  V30 3 1 3 4
M  V30 4 1 4 5
M  V30 5 1 4 6
M  V30 6 1 5 7
M  V30 7 1 7 8
M  V30 END BOND
M  V30 END CTAB
M  END
>  <Drug Name>
Chlormethine

>  <Carbon Count>
5

>  <SMILES String>
ClCCN(CCCl)C

$$$$
Mechlorethamine
Actelion Java MolfileCreator 2.0

  0  0  0  0  0  0              0 V3000
M  V30 BEGIN CTAB
M  V30 COUNTS 8 7 0 0 0
M  V30 BEGIN ATOM
M  V30 1 Cl 5.1961 -0.5 0.0 0
M  V30 2 C 4.3301 0.0 0.0 0
M  V30 3 C 3.4641 -0.5 0.0 0
M  V30 4 N 2.598 0.0 0.0 0
M  V30 5 C 1.732 -0.5 0.0 0
M  V30 6 C 2.598 1.0 0.0 0
M  V30 7 C 0.866 0.0 0.0 0
M  V30 8 Cl 0.0 -0.5 0.0 0
M  V30 END ATOM
M  V30 BEGIN BOND
M  V30 1 1 1 2
M  V30 2 1 2 3
M  V30 3 1 3 4
M  V30 4 1 4 5
M  V30 5 1 4 6
M  V30 6 1 5 7
M  V30 7 1 7 8
M  V30 END BOND
M  V30 END CTAB
M  END
>  <Drug Name>
Mechlorethamine

>  <Carbon Count>
5

>  <SMILES String>
ClCCN(C)CCCl

$$$$
Metformin
Actelion Java MolfileCreator 2.0

  0  0  0  0  0  0              0 V3000
M  V30 BEGIN CTAB
M  V30 COUNTS 9 8 0 0 0
M  V30 BEGIN ATOM
M  V30 1 N 2.598 1.0 0.0 0
M  V30 2 C 2.598 0.0 0.0 0
M  V30 3 N 3.4641 -0.5 0.0 0
M  V30 4 N 1.732 -0.5 0.0 0
M  V30 5 C 4.3301 0.0 0.0 0
M  V30 6 C 3.4641 -1.5 0.0 0
M  V30 7 C 0.866 0.0 0.0 0
M  V30 8 N 0.866 1.0 0.0 0
M  V30 9 N 0.0 -0.5 0.0 0
M  V30 END ATOM
M  V30 BEGIN BOND
M  V30 1 2 1 2
M  V30 2 1 2 3
M  V30 3 1 2 4
M  V30 4 1 3 5
M  V30 5 1 3 6
M  V30 6 1 4 7
M  V30 7 2 7 8
M  V30 8 1 7 9
M  V30 END BOND
M  V30 END CTAB
M  END
>  <Drug Name>
Metformin

>  <Carbon Count>
4

>  <SMILES String>
NC(NC(N(C)C)=N)=N

$$$$
Mequinol
Actelion Java MolfileCreator 2.0

  0  0  0  0  0  0              0 V3000
M  V30 BEGIN CTAB
M  V30 COUNTS 9 9 0 0 0
M  V30 BEGIN ATOM
M  V30 1 O 0.866 0.0 0.0 0
M  V30 2 C 1.732 -0.5 0.0 0
M  V30 3 C 0.0 -0.5 0.0 0
M  V30 4 C 1.732 -1.5 0.0 0
M  V30 5 C 2.598 0.0 0.0 0
M  V30 6 C 2.598 -2.0 0.0 0
M  V30 7 C 3.4641 -0.5 0.0 0
M  V30 8 C 3.4641 -1.5 0.0 0
M  V30 9 O 4.3301 -2.0 0.0 0
M  V30 END ATOM
M  V30 BEGIN BOND
M  V30 1 1 1 2
M  V30 2 1 1 3
M  V30 3 2 2 4
M  V30 4 1 2 5
M  V30 5 1 4 6
M  V30 6 2 5 7
M  V30 7 2 6 8
M  V30 8 1 8 9
M  V30 9 1 7 8
M  V30 END BOND
M  V30 END CTAB
M  END
>  <Drug Name>
Mequinol

>  <Carbon Count>
7

>  <SMILES String>
OC1=CC=C(OC)C=C1

$$$$
Fluorouracil
Actelion Java MolfileCreator 2.0

  0  0  0  0  0  0              0 V3000
M  V30 BEGIN CTAB
M  V30 COUNTS 9 9 0 0 0
M  V30 BEGIN ATOM
M  V30 1 F 1.299 0.0 0.0 0
M  V30 2 C 0.0 -0.75 0.0 0
M  V30 3 C -1.299 0.0 0.0 0
M  V30 4 C 0.0 -2.25 0.0 0
M  V30 5 O -1.299 1.5 0.0 0
M  V30 6 N -2.598 -0.7499 0.0 0
M  V30 7 N -1.299 -2.9999 0.0 0
M  V30 8 C -2.598 -2.2499 0.0 0
M  V30 9 O -3.8971 -2.9999 0.0 0
M  V30 END ATOM
M  V30 BEGIN BOND
M  V30 1 1 1 2
M  V30 2 1 2 3
M  V30 3 2 2 4
M  V30 4 2 3 5
M  V30 5 1 3 6
M  V30 6 1 4 7
M  V30 7 1 6 8
M  V30 8 2 8 9
M  V30 9 1 7 8
M  V30 END BOND
M  V30 END CTAB
M  END
>  <Drug Name>
Fluorouracil

>  <Carbon Count>
4

>  <SMILES String>
c1c(c(=O)[nH]c(=O)[nH]1)F

$$$$
Fluorouracil
Actelion Java MolfileCreator 2.0

  0  0  0  0  0  0              0 V3000
M  V30 BEGIN CTAB
M  V30 COUNTS 9 9 0 0 0
M  V30 BEGIN ATOM
M  V30 1 F 1.299 0.0 0.0 0
M  V30 2 C 0.0 -0.75 0.0 0
M  V30 3 C -1.299 0.0 0.0 0
M  V30 4 C 0.0 -2.25 0.0 0
M  V30 5 O -1.299 1.5 0.0 0
M  V30 6 N -2.598 -0.7499 0.0 0
M  V30 7 N -1.299 -2.9999 0.0 0
M  V30 8 C -2.598 -2.2499 0.0 0
M  V30 9 O -3.8971 -2.9999 0.0 0
M  V30 END ATOM
M  V30 BEGIN BOND
M  V30 1 1 1 2
M  V30 2 1 2 3
M  V30 3 2 2 4
M  V30 4 2 3 5
M  V30 5 1 3 6
M  V30 6 1 4 7
M  V30 7 1 6 8
M  V30 8 2 8 9
M  V30 9 1 7 8
M  V30 END BOND
M  V30 END CTAB
M  END
>  <Drug Name>
Fluorouracil

>  <Carbon Count>
4

>  <SMILES String>
FC(C(N1)=O)=CNC1=O

$$$$
Fluorouracil
Actelion Java MolfileCreator 2.0

  0  0  0  0  0  0              0 V3000
M  V30 BEGIN CTAB
M  V30 COUNTS 9 9 0 0 0
M  V30 BEGIN ATOM
M  V30 1 F 1.299 0.0 0.0 0
M  V30 2 C 0.0 -0.75 0.0 0
M  V30 3 C -1.299 0.0 0.0 0
M  V30 4 C 0.0 -2.25 0.0 0
M  V30 5 O -1.299 1.5 0.0 0
M  V30 6 N -2.598 -0.7499 0.0 0
M  V30 7 N -1.299 -2.9999 0.0 0
M  V30 8 C -2.598 -2.2499 0.0 0
M  V30 9 O -3.8971 -2.9999 0.0 0
M  V30 END ATOM
M  V30 BEGIN BOND
M  V30 1 1 1 2
M  V30 2 1 2 3
M  V30 3 2 2 4
M  V30 4 2 3 5
M  V30 5 1 3 6
M  V30 6 1 4 7
M  V30 7 1 6 8
M  V30 8 2 8 9
M  V30 9 1 7 8
M  V30 END BOND
M  V30 END CTAB
M  END
>  <Drug Name>
Fluorouracil

>  <Carbon Count>
4

>  <SMILES String>
FC(C(N1)=O)=CNC1=O

$$$$
Fluorouracil
Actelion Java MolfileCreator 2.0

  0  0  0  0  0  0              0 V3000
M  V30 BEGIN CTAB
M  V30 COUNTS 9 9 0 0 0
M  V30 BEGIN ATOM
M  V30 1 F 1.299 0.0 0.0 0
M  V30 2 C 0.0 -0.75 0.0 0
M  V30 3 C -1.299 0.0 0.0 0
M  V30 4 C 0.0 -2.25 0.0 0
M  V30 5 O -1.299 1.5 0.0 0
M  V30 6 N -2.598 -0.7499 0.0 0
M  V30 7 N -1.299 -2.9999 0.0 0
M  V30 8 C -2.598 -2.2499 0.0 0
M  V30 9 O -3.8971 -2.9999 0.0 0
M  V30 END ATOM
M  V30 BEGIN BOND
M  V30 1 1 1 2
M  V30 2 1 2 3
M  V30 3 2 2 4
M  V30 4 2 3 5
M  V30 5 1 3 6
M  V30 6 1 4 7
M  V30 7 1 6 8
M  V30 8 2 8 9
M  V30 9 1 7 8
M  V30 END BOND
M  V30 END CTAB
M  END
>  <Drug Name>
Fluorouracil

>  <Carbon Count>
4

>  <SMILES String>
FC(C(N1)=O)=CNC1=O

$$$$
Niacinamide
Actelion Java MolfileCreator 2.0

  0  0  0  0  0  0              0 V3000
M  V30 BEGIN CTAB
M  V30 COUNTS 9 9 0 0 0
M  V30 BEGIN ATOM
M  V30 1 O 2.598 -0.75 0.0 0
M  V30 2 C 1.299 0.0 0.0 0
M  V30 3 N 1.299 1.5 0.0 0
M  V30 4 C 0.0 -0.75 0.0 0
M  V30 5 C -1.299 0.0 0.0 0
M  V30 6 C 0.0 -2.25 0.0 0
M  V30 7 N -2.598 -0.7499 0.0 0
M  V30 8 C -1.299 -2.9999 0.0 0
M  V30 9 C -2.598 -2.2499 0.0 0
M  V30 END ATOM
M  V30 BEGIN BOND
M  V30 1 2 1 2
M  V30 2 1 2 3
M  V30 3 1 2 4
M  V30 4 2 4 5
M  V30 5 1 4 6
M  V30 6 1 5 7
M  V30 7 2 6 8
M  V30 8 2 7 9
M  V30 9 1 8 9
M  V30 END BOND
M  V30 END CTAB
M  END
>  <Drug Name>
Niacinamide

>  <Carbon Count>
6

>  <SMILES String>
NC(C1=CC=CN=C1)=O

$$$$
Pyrazinamide
Actelion Java MolfileCreator 2.0

  0  0  0  0  0  0              0 V3000
M  V30 BEGIN CTAB
M  V30 COUNTS 9 9 0 0 0
M  V30 BEGIN ATOM
M  V30 1 O 2.598 -0.75 0.0 0
M  V30 2 C 1.299 0.0 0.0 0
M  V30 3 N 1.299 1.5 0.0 0
M  V30 4 C 0.0 -0.75 0.0 0
M  V30 5 N -1.299 0.0 0.0 0
M  V30 6 C 0.0 -2.25 0.0 0
M  V30 7 C -2.598 -0.7499 0.0 0
M  V30 8 N -1.299 -2.9999 0.0 0
M  V30 9 C -2.598 -2.2499 0.0 0
M  V30 END ATOM
M  V30 BEGIN BOND
M  V30 1 2 1 2
M  V30 2 1 2 3
M  V30 3 1 2 4
M  V30 4 2 4 5
M  V30 5 1 4 6
M  V30 6 1 5 7
M  V30 7 2 6 8
M  V30 8 2 7 9
M  V30 9 1 8 9
M  V30 END BOND
M  V30 END CTAB
M  END
>  <Drug Name>
Pyrazinamide

>  <Carbon Count>
5

>  <SMILES String>
O=C(N)C1=NC=CN=C1

$$$$
Pheniramine
Actelion Java MolfileCreator 2.0

  0  0  0  0  0  0              0 V3000
M  V30 BEGIN CTAB
M  V30 COUNTS 18 19 0 0 0
M  V30 BEGIN ATOM
M  V30 1 N 4.3301 1.0 0.0 0
M  V30 2 C 4.3301 0.0 0.0 0
M  V30 3 C 5.1961 1.5 0.0 0
M  V30 4 C 5.1961 -0.4999 0.0 0
M  V30 5 C 3.4641 -0.5 0.0 0 CFG=2
M  V30 6 C 6.0621 1.0 0.0 0
M  V30 7 C 6.0621 0.0 0.0 0
M  V30 8 C 3.4641 -1.5 0.0 0
M  V30 9 C 2.598 0.0 0.0 0
M  V30 10 C 2.598 -1.9999 0.0 0
M  V30 11 C 4.3301 -2.0 0.0 0
M  V30 12 C 1.732 -0.5 0.0 0
M  V30 13 C 2.598 -2.9999 0.0 0
M  V30 14 C 4.3301 -3.0 0.0 0
M  V30 15 N 0.866 0.0 0.0 0
M  V30 16 C 3.4641 -3.5 0.0 0
M  V30 17 C 0.866 1.0 0.0 0
M  V30 18 C 0.0 -0.5 0.0 0
M  V30 END ATOM
M  V30 BEGIN BOND
M  V30 1 2 1 2
M  V30 2 1 1 3
M  V30 3 1 2 4
M  V30 4 1 2 5
M  V30 5 2 3 6
M  V30 6 2 4 7
M  V30 7 1 5 8
M  V30 8 1 5 9 CFG=3
M  V30 9 2 8 10
M  V30 10 1 8 11
M  V30 11 1 9 12
M  V30 12 1 10 13
M  V30 13 2 11 14
M  V30 14 1 12 15
M  V30 15 2 13 16
M  V30 16 1 15 17
M  V30 17 1 15 18
M  V30 18 1 6 7
M  V30 19 1 14 16
M  V30 END BOND
M  V30 BEGIN COLLECTION
M  V30 MDLV30/STERAC1 ATOMS=(1 5)
M  V30 END COLLECTION
M  V30 END CTAB
M  END
>  <Drug Name>
Pheniramine

>  <Carbon Count>
7

>  <SMILES String>
O=C(O)C1=CC=CC=C1N

$$$$
Isoniazid
Actelion Java MolfileCreator 2.0

  0  0  0  0  0  0              0 V3000
M  V30 BEGIN CTAB
M  V30 COUNTS 10 10 0 0 0
M  V30 BEGIN ATOM
M  V30 1 O 2.598 0.0 0.0 0
M  V30 2 C 1.732 -0.5 0.0 0
M  V30 3 N 0.866 0.0 0.0 0
M  V30 4 C 1.732 -1.5 0.0 0
M  V30 5 N 0.0 -0.5 0.0 0
M  V30 6 C 0.866 -1.9999 0.0 0
M  V30 7 C 2.598 -2.0 0.0 0
M  V30 8 C 0.866 -2.9999 0.0 0
M  V30 9 C 2.598 -3.0 0.0 0
M  V30 10 N 1.732 -3.5 0.0 0
M  V30 END ATOM
M  V30 BEGIN BOND
M  V30 1 2 1 2
M  V30 2 1 2 3
M  V30 3 1 2 4
M  V30 4 1 3 5
M  V30 5 2 4 6
M  V30 6 1 4 7
M  V30 7 1 6 8
M  V30 8 2 7 9
M  V30 9 2 8 10
M  V30 10 1 9 10
M  V30 END BOND
M  V30 END CTAB
M  END
>  <Drug Name>
Isoniazid

>  <Carbon Count>
6

>  <SMILES String>
O=C(NN)C1=CC=NC=C1

$$$$
Sodium Benzoate
Actelion Java MolfileCreator 2.0

  0  0  0  0  0  0              0 V3000
M  V30 BEGIN CTAB
M  V30 COUNTS 10 9 0 0 0
M  V30 BEGIN ATOM
M  V30 1 Na 0.0 0.0 0.0 0 CHG=1
M  V30 2 O 2.7011 2.5586 0.0 0
M  V30 3 C 3.2141 1.149 0.0 0
M  V30 4 O 2.25 0.0 0.0 0 CHG=-1
M  V30 5 C 4.6913 0.8885 0.0 0
M  V30 6 C 5.2044 -0.5209 0.0 0
M  V30 7 C 5.6555 2.0376 0.0 0
M  V30 8 C 6.6816 -0.7814 0.0 0
M  V30 9 C 7.1327 1.7771 0.0 0
M  V30 10 C 7.6458 0.3676 0.0 0
M  V30 END ATOM
M  V30 BEGIN BOND
M  V30 1 2 2 3
M  V30 2 1 3 4
M  V30 3 1 3 5
M  V30 4 2 5 6
M  V30 5 1 5 7
M  V30 6 1 6 8
M  V30 7 2 7 9
M  V30 8 2 8 10
M  V30 9 1 9 10
M  V30 END BOND
M  V30 END CTAB
M  END
>  <Drug Name>
Sodium Benzoate

>  <Carbon Count>
7

>  <SMILES String>
O=C([O-])C1=CC=CC=C1.[Na+]

$$$$
Acetylcysteine
Actelion Java MolfileCreator 2.0

  0  0  0  0  0  0              0 V3000
M  V30 BEGIN CTAB
M  V30 COUNTS 10 9 0 0 0
M  V30 BEGIN ATOM
M  V30 1 S 4.3301 0.0 0.0 0
M  V30 2 C 3.4641 -0.5 0.0 0
M  V30 3 C 2.598 0.0 0.0 0 CFG=2
M  V30 4 N 1.732 -0.5 0.0 0
M  V30 5 C 2.598 1.0 0.0 0
M  V30 6 C 0.866 0.0 0.0 0
M  V30 7 O 3.4641 1.4999 0.0 0
M  V30 8 O 1.732 1.5 0.0 0
M  V30 9 O 0.866 1.0 0.0 0
M  V30 10 C 0.0 -0.5 0.0 0
M  V30 END ATOM
M  V30 BEGIN BOND
M  V30 1 1 1 2
M  V30 2 1 2 3
M  V30 3 1 3 4 CFG=3
M  V30 4 1 3 5
M  V30 5 1 4 6
M  V30 6 2 5 7
M  V30 7 1 5 8
M  V30 8 2 6 9
M  V30 9 1 6 10
M  V30 END BOND
M  V30 BEGIN COLLECTION
M  V30 MDLV30/STEABS ATOMS=(1 3)
M  V30 END COLLECTION
M  V30 END CTAB
M  END
>  <Drug Name>
Acetylcysteine

>  <Carbon Count>
5

>  <SMILES String>
SC[C@@H](C(O)=O)NC(C)=O

$$$$
6-mercaptopurine
Actelion Java MolfileCreator 2.0

  0  0  0  0  0  0              0 V3000
M  V30 BEGIN CTAB
M  V30 COUNTS 10 11 0 0 0
M  V30 BEGIN ATOM
M  V30 1 S 1.299 0.0 0.0 0
M  V30 2 C 0.0 -0.75 0.0 0
M  V30 3 N 0.0 -2.25 0.0 0
M  V30 4 C -1.299 0.0 0.0 0
M  V30 5 C -1.299 -2.9999 0.0 0
M  V30 6 N -1.6109 1.4672 0.0 0
M  V30 7 C -2.598 -0.7499 0.0 0
M  V30 8 N -2.598 -2.2499 0.0 0
M  V30 9 C -3.1026 1.624 0.0 0
M  V30 10 N -3.7127 0.2536 0.0 0
M  V30 END ATOM
M  V30 BEGIN BOND
M  V30 1 1 1 2
M  V30 2 2 2 3
M  V30 3 1 2 4
M  V30 4 1 3 5
M  V30 5 1 4 6
M  V30 6 2 4 7
M  V30 7 2 5 8
M  V30 8 1 6 9
M  V30 9 1 7 10
M  V30 10 1 7 8
M  V30 11 2 9 10
M  V30 END BOND
M  V30 END CTAB
M  END
>  <Drug Name>
6-mercaptopurine

>  <Carbon Count>
5

>  <SMILES String>
SC1=C2NC=NC2=NC=N1

$$$$
6-mercaptopurine
Actelion Java MolfileCreator 2.0

  0  0  0  0  0  0              0 V3000
M  V30 BEGIN CTAB
M  V30 COUNTS 10 11 0 0 0
M  V30 BEGIN ATOM
M  V30 1 S 1.299 0.0 0.0 0
M  V30 2 C 0.0 -0.75 0.0 0
M  V30 3 N 0.0 -2.25 0.0 0
M  V30 4 C -1.299 0.0 0.0 0
M  V30 5 C -1.299 -2.9999 0.0 0
M  V30 6 N -1.6109 1.4672 0.0 0
M  V30 7 C -2.598 -0.7499 0.0 0
M  V30 8 N -2.598 -2.2499 0.0 0
M  V30 9 C -3.1026 1.624 0.0 0
M  V30 10 N -3.7127 0.2536 0.0 0
M  V30 END ATOM
M  V30 BEGIN BOND
M  V30 1 1 1 2
M  V30 2 2 2 3
M  V30 3 1 2 4
M  V30 4 1 3 5
M  V30 5 1 4 6
M  V30 6 2 4 7
M  V30 7 2 5 8
M  V30 8 1 6 9
M  V30 9 1 7 10
M  V30 10 1 7 8
M  V30 11 2 9 10
M  V30 END BOND
M  V30 END CTAB
M  END
>  <Drug Name>
6-mercaptopurine

>  <Carbon Count>
5

>  <SMILES String>
SC1=C2NC=NC2=NC=N1

$$$$
Allopurinol
Actelion Java MolfileCreator 2.0

  0  0  0  0  0  0              0 V3000
M  V30 BEGIN CTAB
M  V30 COUNTS 10 11 0 0 0
M  V30 BEGIN ATOM
M  V30 1 O 1.299 0.0 0.0 0
M  V30 2 C 0.0 -0.75 0.0 0
M  V30 3 N -1.299 0.0 0.0 0
M  V30 4 C 0.0 -2.2499 0.0 0
M  V30 5 C -2.598 -0.7499 0.0 0
M  V30 6 C -1.299 -3.0 0.0 0
M  V30 7 C 1.1147 -3.2536 0.0 0
M  V30 8 N -2.598 -2.2499 0.0 0
M  V30 9 N -0.9871 -4.4672 0.0 0
M  V30 10 N 0.5046 -4.624 0.0 0
M  V30 END ATOM
M  V30 BEGIN BOND
M  V30 1 2 1 2
M  V30 2 1 2 3
M  V30 3 1 2 4
M  V30 4 2 3 5
M  V30 5 1 4 6
M  V30 6 2 4 7
M  V30 7 1 5 8
M  V30 8 1 6 9
M  V30 9 1 7 10
M  V30 10 2 6 8
M  V30 11 1 9 10
M  V30 END BOND
M  V30 END CTAB
M  END
>  <Drug Name>
Allopurinol

>  <Carbon Count>
5

>  <SMILES String>
O=C1C2=C(N=CN1)NN=C2

$$$$
Tioguanine
Actelion Java MolfileCreator 2.0

  0  0  0  0  0  0              0 V3000
M  V30 BEGIN CTAB
M  V30 COUNTS 11 12 0 0 0
M  V30 BEGIN ATOM
M  V30 1 S 1.299 0.0 0.0 0
M  V30 2 C 0.0 -0.75 0.0 0
M  V30 3 N 0.0 -2.25 0.0 0
M  V30 4 C -1.299 0.0 0.0 0
M  V30 5 C -1.299 -2.9999 0.0 0
M  V30 6 N -1.6109 1.4672 0.0 0
M  V30 7 C -2.598 -0.7499 0.0 0
M  V30 8 N -2.598 -2.2499 0.0 0
M  V30 9 N -1.299 -4.5 0.0 0
M  V30 10 C -3.1026 1.624 0.0 0
M  V30 11 N -3.7127 0.2536 0.0 0
M  V30 END ATOM
M  V30 BEGIN BOND
M  V30 1 2 1 2
M  V30 2 1 2 3
M  V30 3 1 2 4
M  V30 4 2 3 5
M  V30 5 1 4 6
M  V30 6 2 4 7
M  V30 7 1 5 8
M  V30 8 1 5 9
M  V30 9 1 6 10
M  V30 10 1 7 11
M  V30 11 1 7 8
M  V30 12 2 10 11
M  V30 END BOND
M  V30 END CTAB
M  END
>  <Drug Name>
Tioguanine

>  <Carbon Count>
5

>  <SMILES String>
SC1=C(N=CN2)C2=NC(N)=N1

$$$$
Sodium Phenylacetate
Actelion Java MolfileCreator 2.0

  0  0  0  0  0  0              0 V3000
M  V30 BEGIN CTAB
M  V30 COUNTS 11 10 0 0 0
M  V30 BEGIN ATOM
M  V30 1 Na 0.0 0.0 0.0 0 CHG=1
M  V30 2 O 1.5 -1.732 0.0 0
M  V30 3 C 2.0 -0.866 0.0 0
M  V30 4 O 1.5 0.0 0.0 0 CHG=-1
M  V30 5 C 3.0 -0.866 0.0 0
M  V30 6 C 3.5 0.0 0.0 0
M  V30 7 C 4.5 0.0 0.0 0
M  V30 8 C 3.0 0.866 0.0 0
M  V30 9 C 5.0 0.866 0.0 0
M  V30 10 C 3.5 1.732 0.0 0
M  V30 11 C 4.5 1.732 0.0 0
M  V30 END ATOM
M  V30 BEGIN BOND
M  V30 1 2 2 3
M  V30 2 1 3 4
M  V30 3 1 3 5
M  V30 4 1 5 6
M  V30 5 2 6 7
M  V30 6 1 6 8
M  V30 7 1 7 9
M  V30 8 2 8 10
M  V30 9 2 9 11
M  V30 10 1 10 11
M  V30 END BOND
M  V30 END CTAB
M  END
>  <Drug Name>
Sodium Phenylacetate

>  <Carbon Count>
8

>  <SMILES String>
O=C([O-])CC1=CC=CC=C1.[Na+]

$$$$
Pralidoxime
Actelion Java MolfileCreator 2.0

  0  0  0  0  0  0              0 V3000
M  V30 BEGIN CTAB
M  V30 COUNTS 10 10 0 0 0
M  V30 BEGIN ATOM
M  V30 1 O 3.8971 0.0 0.0 0
M  V30 2 N 2.598 -0.75 0.0 0
M  V30 3 C 1.299 0.0 0.0 0
M  V30 4 C 0.0 -0.75 0.0 0
M  V30 5 N -1.299 0.0 0.0 0 CHG=1
M  V30 6 C 0.0 -2.25 0.0 0
M  V30 7 C -2.598 -0.7499 0.0 0
M  V30 8 C -1.299 1.5 0.0 0
M  V30 9 C -1.299 -2.9999 0.0 0
M  V30 10 C -2.598 -2.2499 0.0 0
M  V30 END ATOM
M  V30 BEGIN BOND
M  V30 1 1 1 2
M  V30 2 2 2 3
M  V30 3 1 3 4
M  V30 4 2 4 5
M  V30 5 1 4 6
M  V30 6 1 5 7
M  V30 7 1 5 8
M  V30 8 2 6 9
M  V30 9 2 7 10
M  V30 10 1 9 10
M  V30 END BOND
M  V30 END CTAB
M  END
>  <Drug Name>
Pralidoxime

>  <Carbon Count>
5

>  <SMILES String>
O=C(O)C(S)C(S)C(O)=O.[Tc]

$$$$
Phentermine
Actelion Java MolfileCreator 2.0

  0  0  0  0  0  0              0 V3000
M  V30 BEGIN CTAB
M  V30 COUNTS 11 11 0 0 0
M  V30 BEGIN ATOM
M  V30 1 N 3.348 0.549 0.0 0
M  V30 2 C 2.598 -0.75 0.0 0
M  V30 3 C 1.299 0.0 0.0 0
M  V30 4 C 3.8971 -1.5 0.0 0
M  V30 5 C 1.848 -2.049 0.0 0
M  V30 6 C 0.0 -0.75 0.0 0
M  V30 7 C -1.299 0.0 0.0 0
M  V30 8 C 0.0 -2.2499 0.0 0
M  V30 9 C -2.598 -0.7499 0.0 0
M  V30 10 C -1.299 -2.9999 0.0 0
M  V30 11 C -2.598 -2.2499 0.0 0
M  V30 END ATOM
M  V30 BEGIN BOND
M  V30 1 1 1 2
M  V30 2 1 2 3
M  V30 3 1 2 4
M  V30 4 1 2 5
M  V30 5 1 3 6
M  V30 6 2 6 7
M  V30 7 1 6 8
M  V30 8 1 7 9
M  V30 9 2 8 10
M  V30 10 2 9 11
M  V30 11 1 10 11
M  V30 END BOND
M  V30 END CTAB
M  END
>  <Drug Name>
Phentermine

>  <Carbon Count>
10

>  <SMILES String>
NC(C)(C)CC1=CC=CC=C1

$$$$
Acetaminophen
Actelion Java MolfileCreator 2.0

  0  0  0  0  0  0              0 V3000
M  V30 BEGIN CTAB
M  V30 COUNTS 11 11 0 0 0
M  V30 BEGIN ATOM
M  V30 1 O 3.8971 0.0 0.0 0
M  V30 2 C 2.598 -0.75 0.0 0
M  V30 3 N 1.299 0.0 0.0 0
M  V30 4 C 2.598 -2.25 0.0 0
M  V30 5 C 0.0 -0.75 0.0 0
M  V30 6 C -1.299 0.0 0.0 0
M  V30 7 C 0.0 -2.2499 0.0 0
M  V30 8 C -2.598 -0.7499 0.0 0
M  V30 9 C -1.299 -2.9999 0.0 0
M  V30 10 C -2.598 -2.2499 0.0 0
M  V30 11 O -3.8971 -2.9999 0.0 0
M  V30 END ATOM
M  V30 BEGIN BOND
M  V30 1 2 1 2
M  V30 2 1 2 3
M  V30 3 1 2 4
M  V30 4 1 3 5
M  V30 5 2 5 6
M  V30 6 1 5 7
M  V30 7 1 6 8
M  V30 8 2 7 9
M  V30 9 2 8 10
M  V30 10 1 10 11
M  V30 11 1 9 10
M  V30 END BOND
M  V30 END CTAB
M  END
>  <Drug Name>
Acetaminophen

>  <Carbon Count>
8

>  <SMILES String>
O=C(C)NC1=CC=C(O)C=C1

$$$$
Phenylpropanolamine
Actelion Java MolfileCreator 2.0

  0  0  0  0  0  0              0 V3000
M  V30 BEGIN CTAB
M  V30 COUNTS 11 11 0 0 0
M  V30 BEGIN ATOM
M  V30 1 O 2.598 0.0 0.0 0
M  V30 2 C 1.732 -0.5 0.0 0 CFG=1
M  V30 3 C 1.732 -1.5 0.0 0
M  V30 4 C 0.866 0.0 0.0 0 CFG=2
M  V30 5 C 0.866 -1.9999 0.0 0
M  V30 6 C 2.598 -2.0 0.0 0
M  V30 7 N 0.866 1.0 0.0 0
M  V30 8 C 0.0 -0.5 0.0 0
M  V30 9 C 0.866 -2.9999 0.0 0
M  V30 10 C 2.598 -3.0 0.0 0
M  V30 11 C 1.732 -3.5 0.0 0
M  V30 END ATOM
M  V30 BEGIN BOND
M  V30 1 1 2 1 CFG=1
M  V30 2 1 2 3
M  V30 3 1 2 4
M  V30 4 2 3 5
M  V30 5 1 3 6
M  V30 6 1 4 7 CFG=1
M  V30 7 1 4 8
M  V30 8 1 5 9
M  V30 9 2 6 10
M  V30 10 2 9 11
M  V30 11 1 10 11
M  V30 END BOND
M  V30 BEGIN COLLECTION
M  V30 MDLV30/STEABS ATOMS=(2 2 4)
M  V30 END COLLECTION
M  V30 END CTAB
M  END
>  <Drug Name>
Phenylpropanolamine

>  <Carbon Count>
9

>  <SMILES String>
O[C@H](c1ccccc1)[C@@H](N)C

$$$$
Hydroxyamphetamine
Actelion Java MolfileCreator 2.0

  0  0  0  0  0  0              0 V3000
M  V30 BEGIN CTAB
M  V30 COUNTS 11 11 0 0 0
M  V30 BEGIN ATOM
M  V30 1 O 5.1961 -0.75 0.0 0
M  V30 2 N 3.8971 0.0 0.0 0
M  V30 3 C 2.598 -0.75 0.0 0 CFG=2
M  V30 4 C 1.299 0.0 0.0 0
M  V30 5 C 2.598 -2.25 0.0 0
M  V30 6 C 0.0 -0.75 0.0 0
M  V30 7 C -1.299 0.0 0.0 0
M  V30 8 C 0.0 -2.2499 0.0 0
M  V30 9 C -2.598 -0.7499 0.0 0
M  V30 10 C -1.299 -2.9999 0.0 0
M  V30 11 C -2.598 -2.2499 0.0 0
M  V30 END ATOM
M  V30 BEGIN BOND
M  V30 1 1 1 2
M  V30 2 1 2 3
M  V30 3 1 3 4
M  V30 4 1 3 5 CFG=1
M  V30 5 1 4 6
M  V30 6 2 6 7
M  V30 7 1 6 8
M  V30 8 1 7 9
M  V30 9 2 8 10
M  V30 10 2 9 11
M  V30 11 1 10 11
M  V30 END BOND
M  V30 BEGIN COLLECTION
M  V30 MDLV30/STERAC1 ATOMS=(1 3)
M  V30 END COLLECTION
M  V30 END CTAB
M  END
>  <Drug Name>
Hydroxyamphetamine

>  <Carbon Count>
9

>  <SMILES String>
CC(N)CC1=CC=C(O)C=C1

$$$$
Pargyline
Actelion Java MolfileCreator 2.0

  0  0  0  0  0  0              0 V3000
M  V30 BEGIN CTAB
M  V30 COUNTS 12 12 0 0 0
M  V30 BEGIN ATOM
M  V30 1 N 2.598 -0.75 0.0 0
M  V30 2 C 3.8971 0.0 0.0 0
M  V30 3 C 1.299 0.0 0.0 0
M  V30 4 C 2.598 -2.25 0.0 0
M  V30 5 C 3.8971 1.5 0.0 0
M  V30 6 C 0.0 -0.75 0.0 0
M  V30 7 C 3.8971 3.0 0.0 0
M  V30 8 C -1.299 0.0 0.0 0
M  V30 9 C 0.0 -2.2499 0.0 0
M  V30 10 C -2.598 -0.7499 0.0 0
M  V30 11 C -1.299 -2.9999 0.0 0
M  V30 12 C -2.598 -2.2499 0.0 0
M  V30 END ATOM
M  V30 BEGIN BOND
M  V30 1 1 1 2
M  V30 2 1 1 3
M  V30 3 1 1 4
M  V30 4 1 2 5
M  V30 5 1 3 6
M  V30 6 3 5 7
M  V30 7 2 6 8
M  V30 8 1 6 9
M  V30 9 1 8 10
M  V30 10 2 9 11
M  V30 11 2 10 12
M  V30 12 1 11 12
M  V30 END BOND
M  V30 END CTAB
M  END
>  <Drug Name>
Pargyline

>  <Carbon Count>
11

>  <SMILES String>
CN(CC#C)CC1=CC=CC=C1

$$$$
Phenylephrine
Actelion Java MolfileCreator 2.0

  0  0  0  0  0  0              0 V3000
M  V30 BEGIN CTAB
M  V30 COUNTS 12 12 0 0 0
M  V30 BEGIN ATOM
M  V30 1 O 9.0932 0.0 0.0 0
M  V30 2 C 7.7942 -0.75 0.0 0
M  V30 3 C 6.4951 0.0 0.0 0
M  V30 4 C 7.7942 -2.2499 0.0 0
M  V30 5 C 5.1961 -0.75 0.0 0
M  V30 6 C 6.4951 -3.0 0.0 0
M  V30 7 C 5.1961 -2.2499 0.0 0
M  V30 8 C 3.8971 0.0 0.0 0 CFG=1
M  V30 9 O 3.8971 1.5 0.0 0
M  V30 10 C 2.598 -0.75 0.0 0
M  V30 11 N 1.299 0.0 0.0 0
M  V30 12 C 0.0 -0.75 0.0 0
M  V30 END ATOM
M  V30 BEGIN BOND
M  V30 1 1 1 2
M  V30 2 2 2 3
M  V30 3 1 2 4
M  V30 4 1 3 5
M  V30 5 2 4 6
M  V30 6 2 5 7
M  V30 7 1 5 8
M  V30 8 1 8 9 CFG=3
M  V30 9 1 8 10
M  V30 10 1 10 11
M  V30 11 1 11 12
M  V30 12 1 6 7
M  V30 END BOND
M  V30 BEGIN COLLECTION
M  V30 MDLV30/STEABS ATOMS=(1 8)
M  V30 END COLLECTION
M  V30 END CTAB
M  END
>  <Drug Name>
Phenylephrine

>  <Carbon Count>
9

>  <SMILES String>
OC1=CC(C(CNC)O)=CC=C1

$$$$
Pseudoephedrine
Actelion Java MolfileCreator 2.0

  0  0  0  0  0  0              0 V3000
M  V30 BEGIN CTAB
M  V30 COUNTS 12 12 0 0 0
M  V30 BEGIN ATOM
M  V30 1 O 3.4641 -0.5 0.0 0
M  V30 2 C 2.598 0.0 0.0 0 CFG=1
M  V30 3 C 2.598 1.0 0.0 0
M  V30 4 C 1.732 -0.5 0.0 0 CFG=1
M  V30 5 C 3.4641 1.5 0.0 0
M  V30 6 C 1.732 1.4999 0.0 0
M  V30 7 N 0.866 0.0 0.0 0
M  V30 8 C 1.732 -1.5 0.0 0
M  V30 9 C 3.4641 2.5 0.0 0
M  V30 10 C 1.732 2.5 0.0 0
M  V30 11 C 0.0 -0.5 0.0 0
M  V30 12 C 2.598 3.0 0.0 0
M  V30 END ATOM
M  V30 BEGIN BOND
M  V30 1 1 2 1 CFG=3
M  V30 2 1 2 3
M  V30 3 1 2 4
M  V30 4 2 3 5
M  V30 5 1 3 6
M  V30 6 1 4 7
M  V30 7 1 4 8 CFG=3
M  V30 8 1 5 9
M  V30 9 2 6 10
M  V30 10 1 7 11
M  V30 11 2 9 12
M  V30 12 1 10 12
M  V30 END BOND
M  V30 BEGIN COLLECTION
M  V30 MDLV30/STEABS ATOMS=(2 2 4)
M  V30 END COLLECTION
M  V30 END CTAB
M  END
>  <Drug Name>
Pseudoephedrine

>  <Carbon Count>
10

>  <SMILES String>
OC(C1=CC=CC=C1)C(C)NC

$$$$
Edrophonium
Actelion Java MolfileCreator 2.0

  0  0  0  0  0  0              0 V3000
M  V30 BEGIN CTAB
M  V30 COUNTS 12 12 0 0 0
M  V30 BEGIN ATOM
M  V30 1 O 5.1961 3.75 0.0 0
M  V30 2 C 5.1961 2.25 0.0 0
M  V30 3 C 3.8971 1.5 0.0 0
M  V30 4 C 6.4952 1.5 0.0 0
M  V30 5 C 3.8971 0.0 0.0 0
M  V30 6 C 6.4952 0.0 0.0 0
M  V30 7 N 2.598 -0.75 0.0 0 CHG=1
M  V30 8 C 5.1961 -0.75 0.0 0
M  V30 9 C 1.299 0.0 0.0 0
M  V30 10 C 1.848 -2.049 0.0 0
M  V30 11 C 3.348 -2.049 0.0 0
M  V30 12 C 0.0 -0.75 0.0 0
M  V30 END ATOM
M  V30 BEGIN BOND
M  V30 1 1 1 2
M  V30 2 2 2 3
M  V30 3 1 2 4
M  V30 4 1 3 5
M  V30 5 2 4 6
M  V30 6 1 5 7
M  V30 7 2 5 8
M  V30 8 1 7 9
M  V30 9 1 7 10
M  V30 10 1 7 11
M  V30 11 1 9 12
M  V30 12 1 6 8
M  V30 END BOND
M  V30 END CTAB
M  END
>  <Drug Name>
Edrophonium

>  <Carbon Count>
10

>  <SMILES String>
CC[N+](C1=CC=CC(O)=C1)(C)C

$$$$
Pyridoxine
Actelion Java MolfileCreator 2.0

  0  0  0  0  0  0              0 V3000
M  V30 BEGIN CTAB
M  V30 COUNTS 12 12 0 0 0
M  V30 BEGIN ATOM
M  V30 1 O 2.598 1.0 0.0 0
M  V30 2 C 2.598 0.0 0.0 0
M  V30 3 C 1.732 -0.5 0.0 0
M  V30 4 C 3.4641 -0.4999 0.0 0
M  V30 5 C 1.732 -1.5 0.0 0
M  V30 6 C 0.866 0.0 0.0 0
M  V30 7 N 3.4641 -1.4999 0.0 0
M  V30 8 C 4.3301 0.0 0.0 0
M  V30 9 C 2.598 -1.9999 0.0 0
M  V30 10 C 0.866 -2.0 0.0 0
M  V30 11 O 0.0 -0.5 0.0 0
M  V30 12 O 0.866 -3.0 0.0 0
M  V30 END ATOM
M  V30 BEGIN BOND
M  V30 1 1 1 2
M  V30 2 2 2 3
M  V30 3 1 2 4
M  V30 4 1 3 5
M  V30 5 1 3 6
M  V30 6 2 4 7
M  V30 7 1 4 8
M  V30 8 2 5 9
M  V30 9 1 5 10
M  V30 10 1 6 11
M  V30 11 1 10 12
M  V30 12 1 7 9
M  V30 END BOND
M  V30 END CTAB
M  END
>  <Drug Name>
Pyridoxine

>  <Carbon Count>
8

>  <SMILES String>
CC1=NC=C(C(CO)=C1O)CO

$$$$
Metronidazole
Actelion Java MolfileCreator 2.0

  0  0  0  0  0  0              0 V3000
M  V30 BEGIN CTAB
M  V30 COUNTS 12 12 0 0 0
M  V30 BEGIN ATOM
M  V30 1 O 2.1673 2.6418 0.0 0
M  V30 2 N 1.9594 1.6636 0.0 0 CHG=1
M  V30 3 O 1.0084 1.3546 0.0 0 CHG=-1
M  V30 4 C 2.7026 0.9945 0.0 0
M  V30 5 N 2.598 0.0 0.0 0
M  V30 6 C 3.6807 1.2024 0.0 0
M  V30 7 C 3.5116 -0.4067 0.0 0
M  V30 8 C 1.732 -0.5 0.0 0
M  V30 9 N 4.1807 0.3364 0.0 0
M  V30 10 C 3.7195 -1.3848 0.0 0
M  V30 11 C 0.866 0.0 0.0 0
M  V30 12 O 0.0 -0.5 0.0 0
M  V30 END ATOM
M  V30 BEGIN BOND
M  V30 1 2 1 2
M  V30 2 1 2 3
M  V30 3 1 2 4
M  V30 4 1 4 5
M  V30 5 2 4 6
M  V30 6 1 5 7
M  V30 7 1 5 8
M  V30 8 1 6 9
M  V30 9 1 7 10
M  V30 10 1 8 11
M  V30 11 1 11 12
M  V30 12 2 7 9
M  V30 END BOND
M  V30 END CTAB
M  END
>  <Drug Name>
Metronidazole

>  <Carbon Count>
6

>  <SMILES String>
CC1=NC=C(N1CCO)[N+]([O-])=O

$$$$
Hydralazine
Actelion Java MolfileCreator 2.0

  0  0  0  0  0  0              0 V3000
M  V30 BEGIN CTAB
M  V30 COUNTS 12 13 0 0 0
M  V30 BEGIN ATOM
M  V30 1 N 2.598 -2.2499 0.0 0
M  V30 2 N 3.8971 -3.0 0.0 0
M  V30 3 C 2.598 -0.75 0.0 0
M  V30 4 C 5.1961 -2.25 0.0 0
M  V30 5 N 1.299 0.0 0.0 0
M  V30 6 C 3.8971 0.0 0.0 0
M  V30 7 C 5.1961 -0.75 0.0 0
M  V30 8 N 0.0 -0.75 0.0 0
M  V30 9 C 3.8971 1.4999 0.0 0
M  V30 10 C 6.4951 0.0 0.0 0
M  V30 11 C 5.1961 2.25 0.0 0
M  V30 12 C 6.4951 1.5 0.0 0
M  V30 END ATOM
M  V30 BEGIN BOND
M  V30 1 1 1 2
M  V30 2 2 1 3
M  V30 3 2 2 4
M  V30 4 1 3 5
M  V30 5 1 3 6
M  V30 6 1 4 7
M  V30 7 1 5 8
M  V30 8 2 6 9
M  V30 9 2 7 10
M  V30 10 1 9 11
M  V30 11 1 10 12
M  V30 12 1 6 7
M  V30 13 2 11 12
M  V30 END BOND
M  V30 END CTAB
M  END
>  <Drug Name>
Hydralazine

>  <Carbon Count>
8

>  <SMILES String>
n2nc(c1ccccc1c2)NN

$$$$
Dextrose
Actelion Java MolfileCreator 2.0

  0  0  0  0  0  0              0 V3000
M  V30 BEGIN CTAB
M  V30 COUNTS 12 11 0 0 0
M  V30 BEGIN ATOM
M  V30 1 O 6.0621 0.0 0.0 0
M  V30 2 C 5.1961 -0.5 0.0 0
M  V30 3 C 4.3301 0.0 0.0 0 CFG=2
M  V30 4 O 4.3301 1.0 0.0 0
M  V30 5 C 3.4641 -0.5 0.0 0 CFG=1
M  V30 6 O 3.4641 -1.5 0.0 0
M  V30 7 C 2.598 0.0 0.0 0 CFG=2
M  V30 8 O 2.598 1.0 0.0 0
M  V30 9 C 1.732 -0.5 0.0 0 CFG=2
M  V30 10 O 1.732 -1.5 0.0 0
M  V30 11 C 0.866 0.0 0.0 0
M  V30 12 O 0.0 -0.5 0.0 0
M  V30 END ATOM
M  V30 BEGIN BOND
M  V30 1 2 1 2
M  V30 2 1 2 3
M  V30 3 1 3 4 CFG=1
M  V30 4 1 3 5
M  V30 5 1 5 6 CFG=1
M  V30 6 1 5 7
M  V30 7 1 7 8 CFG=1
M  V30 8 1 7 9
M  V30 9 1 9 10 CFG=3
M  V30 10 1 9 11
M  V30 11 1 11 12
M  V30 END BOND
M  V30 BEGIN COLLECTION
M  V30 MDLV30/STEABS ATOMS=(4 3 5 7 9)
M  V30 END COLLECTION
M  V30 END CTAB
M  END
>  <Drug Name>
Dextrose

>  <Carbon Count>
6

>  <SMILES String>
O=C[C@@H]([C@H]([C@@H]([C@@H](CO)O)O)O)O

$$$$
Carmustine
Actelion Java MolfileCreator 2.0

  0  0  0  0  0  0              0 V3000
M  V30 BEGIN CTAB
M  V30 COUNTS 12 11 0 0 0
M  V30 BEGIN ATOM
M  V30 1 Cl 6.9282 -0.5 0.0 0
M  V30 2 C 6.0621 0.0 0.0 0
M  V30 3 C 5.1961 -0.5 0.0 0
M  V30 4 N 4.3301 0.0 0.0 0
M  V30 5 N 4.3301 1.0 0.0 0
M  V30 6 C 3.4641 -0.5 0.0 0
M  V30 7 O 3.4641 1.5 0.0 0
M  V30 8 O 3.4641 -1.5 0.0 0
M  V30 9 N 2.598 0.0 0.0 0
M  V30 10 C 1.732 -0.5 0.0 0
M  V30 11 C 0.866 0.0 0.0 0
M  V30 12 Cl 0.0 -0.5 0.0 0
M  V30 END ATOM
M  V30 BEGIN BOND
M  V30 1 1 1 2
M  V30 2 1 2 3
M  V30 3 1 3 4
M  V30 4 1 4 5
M  V30 5 1 4 6
M  V30 6 2 5 7
M  V30 7 2 6 8
M  V30 8 1 6 9
M  V30 9 1 9 10
M  V30 10 1 10 11
M  V30 11 1 11 12
M  V30 END BOND
M  V30 END CTAB
M  END
>  <Drug Name>
Carmustine

>  <Carbon Count>
5

>  <SMILES String>
O=C(NCCCl)N(N=O)CCCl

$$$$
Theophylline
Actelion Java MolfileCreator 2.0

  0  0  0  0  0  0              0 V3000
M  V30 BEGIN CTAB
M  V30 COUNTS 13 14 0 0 0
M  V30 BEGIN ATOM
M  V30 1 O 1.299 0.0 0.0 0
M  V30 2 C 0.0 -0.75 0.0 0
M  V30 3 N -1.299 0.0 0.0 0
M  V30 4 N 0.0 -2.2499 0.0 0
M  V30 5 C -2.598 -0.7499 0.0 0
M  V30 6 C -1.299 1.5 0.0 0
M  V30 7 C -1.299 -2.9999 0.0 0
M  V30 8 C 1.299 -2.9999 0.0 0
M  V30 9 O -3.8971 0.0 0.0 0
M  V30 10 C -2.598 -2.2499 0.0 0
M  V30 11 N -1.6109 -4.4672 0.0 0
M  V30 12 N -3.7127 -3.2536 0.0 0
M  V30 13 C -3.1026 -4.624 0.0 0
M  V30 END ATOM
M  V30 BEGIN BOND
M  V30 1 2 1 2
M  V30 2 1 2 3
M  V30 3 1 2 4
M  V30 4 1 3 5
M  V30 5 1 3 6
M  V30 6 1 4 7
M  V30 7 1 4 8
M  V30 8 2 5 9
M  V30 9 1 5 10
M  V30 10 1 7 11
M  V30 11 1 10 12
M  V30 12 2 11 13
M  V30 13 2 7 10
M  V30 14 1 12 13
M  V30 END BOND
M  V30 END CTAB
M  END
>  <Drug Name>
Theophylline

>  <Carbon Count>
7

>  <SMILES String>
CN(C(N1C)=O)C2=C(NC=N2)C1=O

$$$$
Carboplatin
Actelion Java MolfileCreator 2.0

  0  0  0  0  0  0              0 V3000
M  V30 BEGIN CTAB
M  V30 COUNTS 13 12 0 0 0
M  V30 BEGIN ATOM
M  V30 1 Pt 0.9549 1.7186 0.0 0
M  V30 2 O 0.6945 0.2414 0.0 0
M  V30 3 O 2.3645 2.2317 0.0 0
M  V30 4 C 1.8435 -0.7227 0.0 0
M  V30 5 C 3.5135 1.2675 0.0 0
M  V30 6 O 1.5831 -2.1999 0.0 0
M  V30 7 C 3.2531 -0.2096 0.0 0
M  V30 8 O 4.9231 1.7805 0.0 0
M  V30 9 C 3.3838 -1.7039 0.0 0
M  V30 10 C 4.7474 -0.0789 0.0 0
M  V30 11 C 4.8781 -1.5732 0.0 0
M  V30 12 N 3.7381 -4.5615 0.0 0
M  V30 13 N 7.6231 -0.3175 0.0 0
M  V30 END ATOM
M  V30 BEGIN BOND
M  V30 1 1 1 2
M  V30 2 1 1 3
M  V30 3 1 2 4
M  V30 4 1 3 5
M  V30 5 2 4 6
M  V30 6 1 4 7
M  V30 7 2 5 8
M  V30 8 1 7 9
M  V30 9 1 7 10
M  V30 10 1 9 11
M  V30 11 1 5 7
M  V30 12 1 10 11
M  V30 END BOND
M  V30 END CTAB
M  END
>  <Drug Name>
Carboplatin

>  <Carbon Count>
6

>  <SMILES String>
N[Pt](OC(C12CCC2)=O)(N)OC1=O

$$$$
Cliquinol
Actelion Java MolfileCreator 2.0

  0  0  0  0  0  0              0 V3000
M  V30 BEGIN CTAB
M  V30 COUNTS 13 14 0 0 0
M  V30 BEGIN ATOM
M  V30 1 I 0.866 0.0 0.0 0
M  V30 2 C 0.0 -0.5 0.0 0
M  V30 3 C -0.866 0.0 0.0 0
M  V30 4 C 0.0 -1.4999 0.0 0
M  V30 5 O -0.866 1.0 0.0 0
M  V30 6 C -1.732 -0.4999 0.0 0
M  V30 7 C -0.866 -1.9999 0.0 0
M  V30 8 N -2.598 0.0 0.0 0
M  V30 9 C -1.732 -1.4999 0.0 0
M  V30 10 Cl -0.866 -2.9999 0.0 0
M  V30 11 C -3.4641 -0.4999 0.0 0
M  V30 12 C -2.598 -1.9999 0.0 0
M  V30 13 C -3.4641 -1.4999 0.0 0
M  V30 END ATOM
M  V30 BEGIN BOND
M  V30 1 1 1 2
M  V30 2 2 2 3
M  V30 3 1 2 4
M  V30 4 1 3 5
M  V30 5 1 3 6
M  V30 6 2 4 7
M  V30 7 2 6 8
M  V30 8 1 6 9
M  V30 9 1 7 10
M  V30 10 1 8 11
M  V30 11 2 9 12
M  V30 12 2 11 13
M  V30 13 1 7 9
M  V30 14 1 12 13
M  V30 END BOND
M  V30 END CTAB
M  END
>  <Drug Name>
Cliquinol

>  <Carbon Count>
9

>  <SMILES String>
OC1=C(N=CC=C2)C2=C(Cl)C=C1I

$$$$
Aspirin
Actelion Java MolfileCreator 2.0

  0  0  0  0  0  0              0 V3000
M  V30 BEGIN CTAB
M  V30 COUNTS 13 13 0 0 0
M  V30 BEGIN ATOM
M  V30 1 O 1.732 2.5 0.0 0
M  V30 2 C 1.732 1.4999 0.0 0
M  V30 3 O 0.866 1.0 0.0 0
M  V30 4 C 2.598 1.0 0.0 0
M  V30 5 C 2.598 0.0 0.0 0
M  V30 6 C 3.4641 1.4999 0.0 0
M  V30 7 O 1.732 -0.5 0.0 0
M  V30 8 C 3.4641 -0.5 0.0 0
M  V30 9 C 4.3301 1.0 0.0 0
M  V30 10 C 1.732 -1.5 0.0 0
M  V30 11 C 4.3301 0.0 0.0 0
M  V30 12 O 2.598 -2.0 0.0 0
M  V30 13 C 0.866 -2.0 0.0 0
M  V30 END ATOM
M  V30 BEGIN BOND
M  V30 1 2 1 2
M  V30 2 1 2 3
M  V30 3 1 2 4
M  V30 4 2 4 5
M  V30 5 1 4 6
M  V30 6 1 5 7
M  V30 7 1 5 8
M  V30 8 2 6 9
M  V30 9 1 7 10
M  V30 10 2 8 11
M  V30 11 2 10 12
M  V30 12 1 10 13
M  V30 13 1 9 11
M  V30 END BOND
M  V30 END CTAB
M  END
>  <Drug Name>
Aspirin

>  <Carbon Count>
9

>  <SMILES String>
O=C(C1=C(OC(C)=O)C=CC=C1)O

$$$$
Dacarbazine
Actelion Java MolfileCreator 2.0

  0  0  0  0  0  0              0 V3000
M  V30 BEGIN CTAB
M  V30 COUNTS 13 13 0 0 0
M  V30 BEGIN ATOM
M  V30 1 O 2.8116 -2.7819 0.0 0
M  V30 2 C 4.2382 -3.2454 0.0 0
M  V30 3 N 4.55 -4.7127 0.0 0
M  V30 4 C 5.3529 -2.2417 0.0 0
M  V30 5 N 6.8201 -2.5536 0.0 0
M  V30 6 C 5.1961 -0.75 0.0 0
M  V30 7 C 7.5701 -1.2546 0.0 0
M  V30 8 N 3.8971 0.0 0.0 0
M  V30 9 N 6.5664 -0.1398 0.0 0
M  V30 10 N 2.598 -0.75 0.0 0
M  V30 11 N 1.299 0.0 0.0 0
M  V30 12 C 1.299 1.5 0.0 0
M  V30 13 C 0.0 -0.75 0.0 0
M  V30 END ATOM
M  V30 BEGIN BOND
M  V30 1 2 1 2
M  V30 2 1 2 3
M  V30 3 1 2 4
M  V30 4 1 4 5
M  V30 5 2 4 6
M  V30 6 2 5 7
M  V30 7 1 6 8
M  V30 8 1 6 9
M  V30 9 2 8 10
M  V30 10 1 10 11
M  V30 11 1 11 12
M  V30 12 1 11 13
M  V30 13 1 7 9
M  V30 END BOND
M  V30 END CTAB
M  END
>  <Drug Name>
Dacarbazine

>  <Carbon Count>
6

>  <SMILES String>
NC(C1=C(/N=N/N(C)C)NC=N1)=O

$$$$
Tyrosine
Actelion Java MolfileCreator 2.0

  0  0  0  0  0  0              0 V3000
M  V30 BEGIN CTAB
M  V30 COUNTS 13 13 0 0 0
M  V30 BEGIN ATOM
M  V30 1 O 5.1961 -0.75 0.0 0
M  V30 2 C 3.8971 0.0 0.0 0
M  V30 3 O 3.8971 1.5 0.0 0
M  V30 4 C 2.598 -0.75 0.0 0 CFG=1
M  V30 5 N 2.598 -2.25 0.0 0
M  V30 6 C 1.299 0.0 0.0 0
M  V30 7 C 0.0 -0.75 0.0 0
M  V30 8 C -1.299 0.0 0.0 0
M  V30 9 C 0.0 -2.2499 0.0 0
M  V30 10 C -2.598 -0.7499 0.0 0
M  V30 11 C -1.299 -2.9999 0.0 0
M  V30 12 C -2.598 -2.2499 0.0 0
M  V30 13 O -3.8971 -2.9999 0.0 0
M  V30 END ATOM
M  V30 BEGIN BOND
M  V30 1 2 1 2
M  V30 2 1 2 3
M  V30 3 1 2 4
M  V30 4 1 4 5 CFG=1
M  V30 5 1 4 6
M  V30 6 1 6 7
M  V30 7 2 7 8
M  V30 8 1 7 9
M  V30 9 1 8 10
M  V30 10 2 9 11
M  V30 11 2 10 12
M  V30 12 1 12 13
M  V30 13 1 11 12
M  V30 END BOND
M  V30 BEGIN COLLECTION
M  V30 MDLV30/STEABS ATOMS=(1 4)
M  V30 END COLLECTION
M  V30 END CTAB
M  END
>  <Drug Name>
Tyrosine

>  <Carbon Count>
9

>  <SMILES String>
N[C@@H](CC1=CC=C(O)C=C1)C(O)=O

$$$$
Epinephrine
Actelion Java MolfileCreator 2.0

  0  0  0  0  0  0              0 V3000
M  V30 BEGIN CTAB
M  V30 COUNTS 13 13 0 0 0
M  V30 BEGIN ATOM
M  V30 1 O 4.3301 -2.9999 0.0 0
M  V30 2 C 4.3301 -1.9999 0.0 0
M  V30 3 C 5.1961 -1.5 0.0 0
M  V30 4 C 3.4641 -1.5 0.0 0
M  V30 5 O 6.0621 -2.0 0.0 0
M  V30 6 C 5.1961 -0.5 0.0 0
M  V30 7 C 3.4641 -0.5 0.0 0
M  V30 8 C 4.3301 0.0 0.0 0
M  V30 9 C 2.598 0.0 0.0 0 CFG=1
M  V30 10 O 2.598 1.0 0.0 0
M  V30 11 C 1.732 -0.5 0.0 0
M  V30 12 N 0.866 0.0 0.0 0
M  V30 13 C 0.0 -0.5 0.0 0
M  V30 END ATOM
M  V30 BEGIN BOND
M  V30 1 1 1 2
M  V30 2 2 2 3
M  V30 3 1 2 4
M  V30 4 1 3 5
M  V30 5 1 3 6
M  V30 6 2 4 7
M  V30 7 2 6 8
M  V30 8 1 7 9
M  V30 9 1 9 10 CFG=3
M  V30 10 1 9 11
M  V30 11 1 11 12
M  V30 12 1 12 13
M  V30 13 1 7 8
M  V30 END BOND
M  V30 BEGIN COLLECTION
M  V30 MDLV30/STEABS ATOMS=(1 9)
M  V30 END COLLECTION
M  V30 END CTAB
M  END
>  <Drug Name>
Epinephrine

>  <Carbon Count>
9

>  <SMILES String>
OC1=C(O)C=CC(C(CNC)O)=C1

$$$$
Levonordefrin
Actelion Java MolfileCreator 2.0

  0  0  0  0  0  0              0 V3000
M  V30 BEGIN CTAB
M  V30 COUNTS 13 13 0 0 0
M  V30 BEGIN ATOM
M  V30 1 O 5.1961 -0.5 0.0 0
M  V30 2 C 4.3301 0.0 0.0 0
M  V30 3 C 4.3301 1.0 0.0 0
M  V30 4 C 3.4641 -0.4999 0.0 0
M  V30 5 O 5.1961 1.5 0.0 0
M  V30 6 C 3.4641 1.5 0.0 0
M  V30 7 C 2.598 0.0 0.0 0
M  V30 8 C 2.598 1.0 0.0 0
M  V30 9 C 1.732 -0.5 0.0 0 CFG=1
M  V30 10 O 1.732 -1.5 0.0 0
M  V30 11 C 0.866 0.0 0.0 0 CFG=1
M  V30 12 N 0.866 1.0 0.0 0
M  V30 13 C 0.0 -0.5 0.0 0
M  V30 END ATOM
M  V30 BEGIN BOND
M  V30 1 1 1 2
M  V30 2 2 2 3
M  V30 3 1 2 4
M  V30 4 1 3 5
M  V30 5 1 3 6
M  V30 6 2 4 7
M  V30 7 2 6 8
M  V30 8 1 7 9
M  V30 9 1 9 10 CFG=1
M  V30 10 1 9 11
M  V30 11 1 11 12 CFG=3
M  V30 12 1 11 13
M  V30 13 1 7 8
M  V30 END BOND
M  V30 BEGIN COLLECTION
M  V30 MDLV30/STEABS ATOMS=(2 9 11)
M  V30 END COLLECTION
M  V30 END CTAB
M  END
>  <Drug Name>
Levonordefrin

>  <Carbon Count>
9

>  <SMILES String>
O[C@H](C1=CC=C(O)C(O)=C1)[C@@H](N)C

$$$$
Memantine
Actelion Java MolfileCreator 2.0

  0  0  0  0  0  0              0 V3000
M  V30 BEGIN CTAB
M  V30 COUNTS 13 15 0 0 0
M  V30 BEGIN ATOM
M  V30 1 N 1.3996 -0.4795 0.0 0
M  V30 2 C 0.0 0.0 0.0 0
M  V30 3 C 0.0259 1.6329 0.0 0
M  V30 4 C -1.111 -0.427 0.0 0
M  V30 5 C -0.8528 -1.1688 0.0 0
M  V30 6 C -1.5033 2.1513 0.0 0
M  V30 7 C -2.8975 0.1023 0.0 0
M  V30 8 C -2.3473 -0.6862 0.0 0
M  V30 9 C -2.7779 1.6364 0.0 0
M  V30 10 C -2.1885 1.1776 0.0 0
M  V30 11 C -1.549 3.656 0.0 0
M  V30 12 C -3.7195 -1.0627 0.0 0
M  V30 13 C -4.1783 0.5964 0.0 0
M  V30 END ATOM
M  V30 BEGIN BOND
M  V30 1 1 1 2
M  V30 2 1 2 3
M  V30 3 1 2 4
M  V30 4 1 2 5
M  V30 5 1 3 6
M  V30 6 1 4 7
M  V30 7 1 5 8
M  V30 8 1 6 9
M  V30 9 1 6 10
M  V30 10 1 6 11
M  V30 11 1 7 12
M  V30 12 1 7 13
M  V30 13 1 7 9
M  V30 14 1 8 10
M  V30 15 1 8 12
M  V30 END BOND
M  V30 END CTAB
M  END
>  <Drug Name>
Memantine

>  <Carbon Count>
12

>  <SMILES String>
CC12CC3CC(C1)(CC(C3)(C2)N)C

$$$$
Guaifenesin
Actelion Java MolfileCreator 2.0

  0  0  0  0  0  0              0 V3000
M  V30 BEGIN CTAB
M  V30 COUNTS 14 14 0 0 0
M  V30 BEGIN ATOM
M  V30 1 O 3.4641 -0.5 0.0 0
M  V30 2 C 4.3301 0.0 0.0 0
M  V30 3 C 2.598 0.0 0.0 0
M  V30 4 C 5.1961 -0.4999 0.0 0
M  V30 5 C 4.3301 0.9999 0.0 0
M  V30 6 C 1.732 -0.5 0.0 0 CFG=1
M  V30 7 O 5.1961 -1.5 0.0 0
M  V30 8 C 6.0621 0.0 0.0 0
M  V30 9 C 5.1961 1.4999 0.0 0
M  V30 10 O 1.732 -1.5 0.0 0
M  V30 11 C 0.866 0.0 0.0 0
M  V30 12 C 6.0621 -2.0 0.0 0
M  V30 13 C 6.0621 1.0 0.0 0
M  V30 14 O 0.0 -0.5 0.0 0
M  V30 END ATOM
M  V30 BEGIN BOND
M  V30 1 1 1 2
M  V30 2 1 1 3
M  V30 3 2 2 4
M  V30 4 1 2 5
M  V30 5 1 3 6
M  V30 6 1 4 7
M  V30 7 1 4 8
M  V30 8 2 5 9
M  V30 9 1 6 10 CFG=1
M  V30 10 1 6 11
M  V30 11 1 7 12
M  V30 12 2 8 13
M  V30 13 1 11 14
M  V30 14 1 9 13
M  V30 END BOND
M  V30 BEGIN COLLECTION
M  V30 MDLV30/STERAC1 ATOMS=(1 6)
M  V30 END COLLECTION
M  V30 END CTAB
M  END
>  <Drug Name>
Guaifenesin

>  <Carbon Count>
10

>  <SMILES String>
O(c1ccccc1OC)CC(O)CO

$$$$
Cyclophosphoramide
Actelion Java MolfileCreator 2.0

  0  0  0  0  0  0              0 V3000
M  V30 BEGIN CTAB
M  V30 COUNTS 14 14 0 0 0
M  V30 BEGIN ATOM
M  V30 1 Cl 5.1961 -0.5 0.0 0
M  V30 2 C 4.3301 0.0 0.0 0
M  V30 3 C 3.4641 -0.5 0.0 0
M  V30 4 N 2.598 0.0 0.0 0
M  V30 5 P 2.598 1.0 0.0 0
M  V30 6 C 1.732 -0.5 0.0 0
M  V30 7 O 1.732 0.4999 0.0 0
M  V30 8 O 3.4641 1.5 0.0 0
M  V30 9 N 1.732 1.4999 0.0 0
M  V30 10 C 0.866 0.0 0.0 0
M  V30 11 C 3.4641 2.5 0.0 0
M  V30 12 C 1.732 2.5 0.0 0
M  V30 13 Cl 0.0 -0.5 0.0 0
M  V30 14 C 2.598 3.0 0.0 0
M  V30 END ATOM
M  V30 BEGIN BOND
M  V30 1 1 1 2
M  V30 2 1 2 3
M  V30 3 1 3 4
M  V30 4 1 4 5
M  V30 5 1 4 6
M  V30 6 2 5 7
M  V30 7 1 5 8
M  V30 8 1 5 9
M  V30 9 1 6 10
M  V30 10 1 8 11
M  V30 11 1 9 12
M  V30 12 1 10 13
M  V30 13 1 11 14
M  V30 14 1 12 14
M  V30 END BOND
M  V30 END CTAB
M  END
>  <Drug Name>
Cyclophosphoramide

>  <Carbon Count>
7

>  <SMILES String>
O=P1(N(CCCl)CCCl)NCCCO1

$$$$
Ifosfamide
Actelion Java MolfileCreator 2.0

  0  0  0  0  0  0              0 V3000
M  V30 BEGIN CTAB
M  V30 COUNTS 14 14 0 0 0
M  V30 BEGIN ATOM
M  V30 1 Cl 2.598 -5.25 0.0 0
M  V30 2 C 1.299 -4.5 0.0 0
M  V30 3 C 1.299 -3.0 0.0 0
M  V30 4 N 0.0 -2.25 0.0 0
M  V30 5 P 0.0 -0.75 0.0 0 CFG=2
M  V30 6 C -1.299 -2.9999 0.0 0
M  V30 7 O 1.299 -1.5 0.0 0
M  V30 8 O -1.299 0.0 0.0 0
M  V30 9 N 1.299 0.0 0.0 0
M  V30 10 C -2.598 -2.2499 0.0 0
M  V30 11 C -2.598 -0.7499 0.0 0
M  V30 12 C 2.598 -0.75 0.0 0
M  V30 13 C 3.8971 0.0 0.0 0
M  V30 14 Cl 5.1961 -0.75 0.0 0
M  V30 END ATOM
M  V30 BEGIN BOND
M  V30 1 1 1 2
M  V30 2 1 2 3
M  V30 3 1 3 4
M  V30 4 1 4 5
M  V30 5 1 4 6
M  V30 6 2 5 7
M  V30 7 1 5 8
M  V30 8 1 5 9 CFG=3
M  V30 9 1 6 10
M  V30 10 1 8 11
M  V30 11 1 9 12
M  V30 12 1 12 13
M  V30 13 1 13 14
M  V30 14 1 10 11
M  V30 END BOND
M  V30 BEGIN COLLECTION
M  V30 MDLV30/STERAC1 ATOMS=(1 5)
M  V30 END COLLECTION
M  V30 END CTAB
M  END
>  <Drug Name>
Ifosfamide

>  <Carbon Count>
7

>  <SMILES String>
ClCCN1CCCOP1(NCCCl)=O

$$$$
Sulfacetamide
Actelion Java MolfileCreator 2.0

  0  0  0  0  0  0              0 V3000
M  V30 BEGIN CTAB
M  V30 COUNTS 14 14 0 0 0
M  V30 BEGIN ATOM
M  V30 1 S 3.8971 0.0 0.0 0
M  V30 2 O 4.6471 1.299 0.0 0
M  V30 3 O 3.1471 1.299 0.0 0
M  V30 4 N 2.598 -0.75 0.0 0
M  V30 5 C 5.1961 -0.75 0.0 0
M  V30 6 C 1.299 0.0 0.0 0
M  V30 7 C 5.1961 -2.25 0.0 0
M  V30 8 C 6.4952 0.0 0.0 0
M  V30 9 O 1.299 1.5 0.0 0
M  V30 10 C 0.0 -0.75 0.0 0
M  V30 11 C 6.4952 -3.0 0.0 0
M  V30 12 C 7.7942 -0.75 0.0 0
M  V30 13 C 7.7942 -2.25 0.0 0
M  V30 14 N 9.0932 -3.0 0.0 0
M  V30 END ATOM
M  V30 BEGIN BOND
M  V30 1 2 1 2
M  V30 2 2 1 3
M  V30 3 1 1 4
M  V30 4 1 1 5
M  V30 5 1 4 6
M  V30 6 2 5 7
M  V30 7 1 5 8
M  V30 8 2 6 9
M  V30 9 1 6 10
M  V30 10 1 7 11
M  V30 11 2 8 12
M  V30 12 2 11 13
M  V30 13 1 13 14
M  V30 14 1 12 13
M  V30 END BOND
M  V30 END CTAB
M  END
>  <Drug Name>
Sulfacetamide

>  <Carbon Count>
8

>  <SMILES String>
NC1=CC=C(S(NC(C)=O)(=O)=O)C=C1

$$$$
Levodopa
Actelion Java MolfileCreator 2.0

  0  0  0  0  0  0              0 V3000
M  V30 BEGIN CTAB
M  V30 COUNTS 14 14 0 0 0
M  V30 BEGIN ATOM
M  V30 1 O 5.1961 -0.75 0.0 0
M  V30 2 C 3.8971 0.0 0.0 0
M  V30 3 O 3.8971 1.5 0.0 0
M  V30 4 C 2.598 -0.75 0.0 0 CFG=1
M  V30 5 N 2.598 -2.25 0.0 0
M  V30 6 C 1.299 0.0 0.0 0
M  V30 7 C 0.0 -0.75 0.0 0
M  V30 8 C -1.299 0.0 0.0 0
M  V30 9 C 0.0 -2.2499 0.0 0
M  V30 10 C -2.598 -0.7499 0.0 0
M  V30 11 C -1.299 -2.9999 0.0 0
M  V30 12 O -3.8971 0.0 0.0 0
M  V30 13 C -2.598 -2.2499 0.0 0
M  V30 14 O -3.8971 -2.9999 0.0 0
M  V30 END ATOM
M  V30 BEGIN BOND
M  V30 1 2 1 2
M  V30 2 1 2 3
M  V30 3 1 2 4
M  V30 4 1 4 5 CFG=1
M  V30 5 1 4 6
M  V30 6 1 6 7
M  V30 7 2 7 8
M  V30 8 1 7 9
M  V30 9 1 8 10
M  V30 10 2 9 11
M  V30 11 1 10 12
M  V30 12 2 10 13
M  V30 13 1 13 14
M  V30 14 1 11 13
M  V30 END BOND
M  V30 BEGIN COLLECTION
M  V30 MDLV30/STEABS ATOMS=(1 4)
M  V30 END COLLECTION
M  V30 END CTAB
M  END
>  <Drug Name>
Levodopa

>  <Carbon Count>
9

>  <SMILES String>
OC([C@@H](N)CC1=CC=C(O)C(O)=C1)=O

$$$$
Captopril
Actelion Java MolfileCreator 2.0

  0  0  0  0  0  0              0 V3000
M  V30 BEGIN CTAB
M  V30 COUNTS 14 14 0 0 0
M  V30 BEGIN ATOM
M  V30 1 S 3.4641 -0.5 0.0 0
M  V30 2 C 2.598 0.0 0.0 0
M  V30 3 C 1.732 -0.5 0.0 0 CFG=2
M  V30 4 C 0.866 0.0 0.0 0
M  V30 5 C 1.732 -1.5 0.0 0
M  V30 6 O 0.866 1.0 0.0 0
M  V30 7 N 0.0 -0.5 0.0 0
M  V30 8 C -0.9135 -0.0932 0.0 0 CFG=2
M  V30 9 C -0.1045 -1.4945 0.0 0
M  V30 10 C -1.1214 0.8848 0.0 0
M  V30 11 C -1.5826 -0.8364 0.0 0
M  V30 12 C -1.0826 -1.7024 0.0 0
M  V30 13 O -0.3783 1.554 0.0 0
M  V30 14 O -2.0725 1.1939 0.0 0
M  V30 END ATOM
M  V30 BEGIN BOND
M  V30 1 1 1 2
M  V30 2 1 2 3
M  V30 3 1 3 4
M  V30 4 1 3 5 CFG=1
M  V30 5 2 4 6
M  V30 6 1 4 7
M  V30 7 1 7 8
M  V30 8 1 7 9
M  V30 9 1 8 10 CFG=1
M  V30 10 1 8 11
M  V30 11 1 9 12
M  V30 12 2 10 13
M  V30 13 1 10 14
M  V30 14 1 11 12
M  V30 END BOND
M  V30 BEGIN COLLECTION
M  V30 MDLV30/STEABS ATOMS=(2 3 8)
M  V30 END COLLECTION
M  V30 END CTAB
M  END
>  <Drug Name>
Captopril

>  <Carbon Count>
9

>  <SMILES String>
O=C(O)[C@H]1N(C([C@H](C)CS)=O)CCC1

$$$$
Busulfan
Actelion Java MolfileCreator 2.0

  0  0  0  0  0  0              0 V3000
M  V30 BEGIN CTAB
M  V30 COUNTS 14 13 0 0 0
M  V30 BEGIN ATOM
M  V30 1 S 6.0621 0.0 0.0 0
M  V30 2 O 6.5621 -0.866 0.0 0
M  V30 3 O 5.5621 0.866 0.0 0
M  V30 4 O 5.1961 -0.5 0.0 0
M  V30 5 C 6.9282 0.4999 0.0 0
M  V30 6 C 4.3301 0.0 0.0 0
M  V30 7 C 3.4641 -0.5 0.0 0
M  V30 8 C 2.598 0.0 0.0 0
M  V30 9 C 1.732 -0.5 0.0 0
M  V30 10 O 0.866 0.0 0.0 0
M  V30 11 S 0.0 -0.5 0.0 0
M  V30 12 O -0.4999 0.366 0.0 0
M  V30 13 O 0.4999 -1.366 0.0 0
M  V30 14 C -0.866 -0.9999 0.0 0
M  V30 END ATOM
M  V30 BEGIN BOND
M  V30 1 2 1 2
M  V30 2 2 1 3
M  V30 3 1 1 4
M  V30 4 1 1 5
M  V30 5 1 4 6
M  V30 6 1 6 7
M  V30 7 1 7 8
M  V30 8 1 8 9
M  V30 9 1 9 10
M  V30 10 1 10 11
M  V30 11 2 11 12
M  V30 12 2 11 13
M  V30 13 1 11 14
M  V30 END BOND
M  V30 END CTAB
M  END
>  <Drug Name>
Busulfan

>  <Carbon Count>
6

>  <SMILES String>
CS(=O)(OCCCCOS(C)(=O)=O)=O

$$$$
Caffeine
Actelion Java MolfileCreator 2.0

  0  0  0  0  0  0              0 V3000
M  V30 BEGIN CTAB
M  V30 COUNTS 14 15 0 0 0
M  V30 BEGIN ATOM
M  V30 1 O 2.8464 5.7715 0.0 0
M  V30 2 C 2.3828 4.3449 0.0 0
M  V30 3 N 0.9156 4.033 0.0 0
M  V30 4 N 3.3865 3.2302 0.0 0
M  V30 5 C 0.4521 2.6065 0.0 0
M  V30 6 C -0.088 5.1478 0.0 0
M  V30 7 C 2.923 1.8036 0.0 0
M  V30 8 C 4.8537 3.5421 0.0 0
M  V30 9 O -1.015 2.2946 0.0 0
M  V30 10 C 1.4558 1.4917 0.0 0
M  V30 11 N 3.673 0.5046 0.0 0
M  V30 12 N 1.299 0.0 0.0 0
M  V30 13 C 2.6693 -0.6101 0.0 0
M  V30 14 C 0.0 -0.75 0.0 0
M  V30 END ATOM
M  V30 BEGIN BOND
M  V30 1 2 1 2
M  V30 2 1 2 3
M  V30 3 1 2 4
M  V30 4 1 3 5
M  V30 5 1 3 6
M  V30 6 1 4 7
M  V30 7 1 4 8
M  V30 8 2 5 9
M  V30 9 1 5 10
M  V30 10 1 7 11
M  V30 11 1 10 12
M  V30 12 2 11 13
M  V30 13 1 12 14
M  V30 14 2 7 10
M  V30 15 1 12 13
M  V30 END BOND
M  V30 END CTAB
M  END
>  <Drug Name>
Caffeine

>  <Carbon Count>
8

>  <SMILES String>
O=C(N(C1=O)C)N(C2=C1N(C=N2)C)C

$$$$
Clavulanate
Actelion Java MolfileCreator 2.0

  0  0  0  0  0  0              0 V3000
M  V30 BEGIN CTAB
M  V30 COUNTS 14 15 0 0 0
M  V30 BEGIN ATOM
M  V30 1 O 4.8055 2.6683 0.0 0
M  V30 2 C 4.5467 1.7024 0.0 0
M  V30 3 N 3.6807 1.2024 0.0 0
M  V30 4 C 5.0467 0.8364 0.0 0
M  V30 5 C 2.7026 0.9945 0.0 0 CFG=2
M  V30 6 C 4.1807 0.3364 0.0 0 CFG=1
M  V30 7 C 2.598 0.0 0.0 0
M  V30 8 C 1.9594 1.6636 0.0 0
M  V30 9 O 3.5116 -0.4067 0.0 0
M  V30 10 C 1.732 -0.5 0.0 0
M  V30 11 O 2.1673 2.6418 0.0 0
M  V30 12 O 1.0084 1.3546 0.0 0
M  V30 13 C 1.732 -1.5 0.0 0
M  V30 14 O 0.866 -2.0 0.0 0
M  V30 END ATOM
M  V30 BEGIN BOND
M  V30 1 2 1 2
M  V30 2 1 2 3
M  V30 3 1 2 4
M  V30 4 1 3 5
M  V30 5 1 3 6
M  V30 6 1 5 7
M  V30 7 1 5 8 CFG=3
M  V30 8 1 6 9 CFG=1
M  V30 9 2 7 10
M  V30 10 2 8 11
M  V30 11 1 8 12
M  V30 12 1 10 13
M  V30 13 1 13 14
M  V30 14 1 4 6
M  V30 15 1 7 9
M  V30 END BOND
M  V30 BEGIN COLLECTION
M  V30 MDLV30/STEABS ATOMS=(2 5 6)
M  V30 END COLLECTION
M  V30 END CTAB
M  END
>  <Drug Name>
Clavulanate

>  <Carbon Count>
8

>  <SMILES String>
O=C1C[C@]2([H])N1[C@@]([H])(C(O)=O)/C(O2)=C/CO

$$$$
Clonidine
Actelion Java MolfileCreator 2.0

  0  0  0  0  0  0              0 V3000
M  V30 BEGIN CTAB
M  V30 COUNTS 14 15 0 0 0
M  V30 BEGIN ATOM
M  V30 1 Cl 2.598 1.0 0.0 0
M  V30 2 C 2.598 0.0 0.0 0
M  V30 3 C 1.732 -0.5 0.0 0
M  V30 4 C 3.4641 -0.4999 0.0 0
M  V30 5 N 0.866 0.0 0.0 0
M  V30 6 C 1.732 -1.5 0.0 0
M  V30 7 C 3.4641 -1.4999 0.0 0
M  V30 8 C 0.0 -0.5 0.0 0
M  V30 9 Cl 0.866 -2.0 0.0 0
M  V30 10 C 2.598 -1.9999 0.0 0
M  V30 11 N -0.9135 -0.0932 0.0 0
M  V30 12 N -0.1045 -1.4945 0.0 0
M  V30 13 C -1.5826 -0.8364 0.0 0
M  V30 14 C -1.0826 -1.7024 0.0 0
M  V30 END ATOM
M  V30 BEGIN BOND
M  V30 1 1 1 2
M  V30 2 2 2 3
M  V30 3 1 2 4
M  V30 4 1 3 5
M  V30 5 1 3 6
M  V30 6 2 4 7
M  V30 7 1 5 8
M  V30 8 1 6 9
M  V30 9 2 6 10
M  V30 10 2 8 11
M  V30 11 1 8 12
M  V30 12 1 11 13
M  V30 13 1 12 14
M  V30 14 1 7 10
M  V30 15 1 13 14
M  V30 END BOND
M  V30 END CTAB
M  END
>  <Drug Name>
Clonidine

>  <Carbon Count>
9

>  <SMILES String>
ClC1=CC=CC(Cl)=C1NC2=NCCN2

$$$$
Meprobamate
Actelion Java MolfileCreator 2.0

  0  0  0  0  0  0              0 V3000
M  V30 BEGIN CTAB
M  V30 COUNTS 15 14 0 0 0
M  V30 BEGIN ATOM
M  V30 1 O 6.9282 -0.5 0.0 0
M  V30 2 C 6.0621 0.0 0.0 0
M  V30 3 O 5.1961 -0.5 0.0 0
M  V30 4 N 6.0621 0.9999 0.0 0
M  V30 5 C 4.3301 0.0 0.0 0
M  V30 6 C 3.4641 -0.5 0.0 0
M  V30 7 C 2.598 0.0 0.0 0
M  V30 8 C 3.4641 -1.5 0.0 0
M  V30 9 C 3.4641 0.5 0.0 0
M  V30 10 O 1.732 -0.5 0.0 0
M  V30 11 C 2.598 -2.0 0.0 0
M  V30 12 C 0.866 0.0 0.0 0
M  V30 13 C 2.598 -3.0 0.0 0
M  V30 14 O 0.866 1.0 0.0 0
M  V30 15 N 0.0 -0.5 0.0 0
M  V30 END ATOM
M  V30 BEGIN BOND
M  V30 1 2 1 2
M  V30 2 1 2 3
M  V30 3 1 2 4
M  V30 4 1 3 5
M  V30 5 1 5 6
M  V30 6 1 6 7
M  V30 7 1 6 8
M  V30 8 1 6 9
M  V30 9 1 7 10
M  V30 10 1 8 11
M  V30 11 1 10 12
M  V30 12 1 11 13
M  V30 13 2 12 14
M  V30 14 1 12 15
M  V30 END BOND
M  V30 END CTAB
M  END
>  <Drug Name>
Meprobamate

>  <Carbon Count>
9

>  <SMILES String>
CC(CCC)(COC(N)=O)COC(N)=O

$$$$
Oxaliplatin
Actelion Java MolfileCreator 2.0

  0  0  0  0  0  0              0 V3000
M  V30 BEGIN CTAB
M  V30 COUNTS 15 17 0 0 0
M  V30 BEGIN ATOM
M  V30 1 Pt 2.923 1.8036 0.0 0
M  V30 2 O 1.4558 1.4917 0.0 0
M  V30 3 O 3.673 0.5046 0.0 0
M  V30 4 N 4.3902 2.1155 0.0 0 VAL=4
M  V30 5 N 2.173 3.1026 0.0 0 VAL=4
M  V30 6 C 1.299 0.0 0.0 0
M  V30 7 C 2.6693 -0.6101 0.0 0
M  V30 8 C 4.547 3.6073 0.0 0 CFG=2
M  V30 9 C 3.1767 4.2174 0.0 0 CFG=2
M  V30 10 O 0.0 -0.75 0.0 0
M  V30 11 O 2.9812 -2.0773 0.0 0
M  V30 12 C 5.7605 4.4889 0.0 0
M  V30 13 C 3.0199 5.7091 0.0 0
M  V30 14 C 5.6037 5.9807 0.0 0
M  V30 15 C 4.2334 6.5908 0.0 0
M  V30 END ATOM
M  V30 BEGIN BOND
M  V30 1 1 1 2
M  V30 2 1 1 3
M  V30 3 1 1 4
M  V30 4 1 1 5
M  V30 5 1 2 6
M  V30 6 1 3 7
M  V30 7 1 8 4 CFG=3
M  V30 8 1 9 5 CFG=1
M  V30 9 2 6 10
M  V30 10 2 7 11
M  V30 11 1 8 12
M  V30 12 1 9 13
M  V30 13 1 12 14
M  V30 14 1 13 15
M  V30 15 1 6 7
M  V30 16 1 8 9
M  V30 17 1 14 15
M  V30 END BOND
M  V30 BEGIN COLLECTION
M  V30 MDLV30/STERAC1 ATOMS=(2 8 9)
M  V30 END COLLECTION
M  V30 END CTAB
M  END
>  <Drug Name>
Oxaliplatin

>  <Carbon Count>
8

>  <SMILES String>
O=C(C([O-])=O)[O-].[NH-][C@@H]1CCCC[C@H]1[NH-].[Pt+4]

$$$$
Ibuprofen
Actelion Java MolfileCreator 2.0

  0  0  0  0  0  0              0 V3000
M  V30 BEGIN CTAB
M  V30 COUNTS 15 15 0 0 0
M  V30 BEGIN ATOM
M  V30 1 O 4.3301 3.0 0.0 0
M  V30 2 C 5.1961 2.5 0.0 0
M  V30 3 O 6.0621 3.0 0.0 0
M  V30 4 C 5.1961 1.5 0.0 0 CFG=1
M  V30 5 C 4.3301 1.0 0.0 0
M  V30 6 C 6.0621 1.0 0.0 0
M  V30 7 C 3.4641 1.5 0.0 0
M  V30 8 C 4.3301 0.0 0.0 0
M  V30 9 C 2.598 0.9999 0.0 0
M  V30 10 C 3.4641 -0.4999 0.0 0
M  V30 11 C 2.598 0.0 0.0 0
M  V30 12 C 1.732 -0.5 0.0 0
M  V30 13 C 0.866 0.0 0.0 0
M  V30 14 C 0.866 1.0 0.0 0
M  V30 15 C 0.0 -0.5 0.0 0
M  V30 END ATOM
M  V30 BEGIN BOND
M  V30 1 2 1 2
M  V30 2 1 2 3
M  V30 3 1 2 4
M  V30 4 1 4 5
M  V30 5 1 4 6 CFG=3
M  V30 6 2 5 7
M  V30 7 1 5 8
M  V30 8 1 7 9
M  V30 9 2 8 10
M  V30 10 2 9 11
M  V30 11 1 11 12
M  V30 12 1 12 13
M  V30 13 1 13 14
M  V30 14 1 13 15
M  V30 15 1 10 11
M  V30 END BOND
M  V30 BEGIN COLLECTION
M  V30 MDLV30/STERAC1 ATOMS=(1 4)
M  V30 END COLLECTION
M  V30 END CTAB
M  END
>  <Drug Name>
Ibuprofen

>  <Carbon Count>
13

>  <SMILES String>
CC(CC1=CC=C(C(C(O)=O)C)C=C1)C

$$$$
Lomustine
Actelion Java MolfileCreator 2.0

  0  0  0  0  0  0              0 V3000
M  V30 BEGIN CTAB
M  V30 COUNTS 15 15 0 0 0
M  V30 BEGIN ATOM
M  V30 1 Cl 7.7942 -0.75 0.0 0
M  V30 2 C 6.4951 0.0 0.0 0
M  V30 3 C 5.1961 -0.75 0.0 0
M  V30 4 N 3.8971 0.0 0.0 0
M  V30 5 N 3.8971 1.5 0.0 0
M  V30 6 C 2.598 -0.75 0.0 0
M  V30 7 O 2.598 2.25 0.0 0
M  V30 8 O 2.598 -2.25 0.0 0
M  V30 9 N 1.299 0.0 0.0 0
M  V30 10 C 0.0 -0.75 0.0 0
M  V30 11 C -1.299 0.0 0.0 0
M  V30 12 C 0.0 -2.2499 0.0 0
M  V30 13 C -2.598 -0.7499 0.0 0
M  V30 14 C -1.299 -2.9999 0.0 0
M  V30 15 C -2.598 -2.2499 0.0 0
M  V30 END ATOM
M  V30 BEGIN BOND
M  V30 1 1 1 2
M  V30 2 1 2 3
M  V30 3 1 3 4
M  V30 4 1 4 5
M  V30 5 1 4 6
M  V30 6 2 5 7
M  V30 7 2 6 8
M  V30 8 1 6 9
M  V30 9 1 9 10
M  V30 10 1 10 11
M  V30 11 1 10 12
M  V30 12 1 11 13
M  V30 13 1 12 14
M  V30 14 1 13 15
M  V30 15 1 14 15
M  V30 END BOND
M  V30 END CTAB
M  END
>  <Drug Name>
Lomustine

>  <Carbon Count>
10

>  <SMILES String>
O=C(N(C=O)CCCl)NC1CCCCC1

$$$$
Methyldopa
Actelion Java MolfileCreator 2.0

  0  0  0  0  0  0              0 V3000
M  V30 BEGIN CTAB
M  V30 COUNTS 15 15 0 0 0
M  V30 BEGIN ATOM
M  V30 1 O 5.1961 -0.75 0.0 0
M  V30 2 C 3.8971 0.0 0.0 0
M  V30 3 O 3.8971 1.5 0.0 0
M  V30 4 C 2.598 -0.75 0.0 0 CFG=1
M  V30 5 N 2.598 -2.25 0.0 0
M  V30 6 C 1.299 0.0 0.0 0
M  V30 7 C 3.8971 -3.0 0.0 0
M  V30 8 C 0.0 -0.75 0.0 0
M  V30 9 C -1.299 0.0 0.0 0
M  V30 10 C 0.0 -2.2499 0.0 0
M  V30 11 C -2.598 -0.7499 0.0 0
M  V30 12 C -1.299 -2.9999 0.0 0
M  V30 13 O -3.8971 0.0 0.0 0
M  V30 14 C -2.598 -2.2499 0.0 0
M  V30 15 O -3.8971 -2.9999 0.0 0
M  V30 END ATOM
M  V30 BEGIN BOND
M  V30 1 2 1 2
M  V30 2 1 2 3
M  V30 3 1 2 4
M  V30 4 1 4 5 CFG=1
M  V30 5 1 4 6
M  V30 6 1 5 7
M  V30 7 1 6 8
M  V30 8 2 8 9
M  V30 9 1 8 10
M  V30 10 1 9 11
M  V30 11 2 10 12
M  V30 12 1 11 13
M  V30 13 2 11 14
M  V30 14 1 14 15
M  V30 15 1 12 14
M  V30 END BOND
M  V30 BEGIN COLLECTION
M  V30 MDLV30/STEABS ATOMS=(1 4)
M  V30 END COLLECTION
M  V30 END CTAB
M  END
>  <Drug Name>
Methyldopa

>  <Carbon Count>
10

>  <SMILES String>
O=C(O)[C@@](C)(N)CC1=CC=C(O)C(O)=C1

$$$$
Isoproterenol
Actelion Java MolfileCreator 2.0

  0  0  0  0  0  0              0 V3000
M  V30 BEGIN CTAB
M  V30 COUNTS 15 15 0 0 0
M  V30 BEGIN ATOM
M  V30 1 O 10.3923 -0.75 0.0 0
M  V30 2 C 9.0932 0.0 0.0 0
M  V30 3 C 9.0932 1.4999 0.0 0
M  V30 4 C 7.7942 -0.75 0.0 0
M  V30 5 O 10.3923 2.2499 0.0 0
M  V30 6 C 7.7942 2.2499 0.0 0
M  V30 7 C 6.4951 0.0 0.0 0
M  V30 8 C 6.4951 1.5 0.0 0
M  V30 9 C 5.1961 -0.75 0.0 0 CFG=1
M  V30 10 O 5.1961 -2.25 0.0 0
M  V30 11 C 3.8971 0.0 0.0 0
M  V30 12 N 2.598 -0.75 0.0 0
M  V30 13 C 1.299 0.0 0.0 0
M  V30 14 C 1.299 1.5 0.0 0
M  V30 15 C 0.0 -0.75 0.0 0
M  V30 END ATOM
M  V30 BEGIN BOND
M  V30 1 1 1 2
M  V30 2 2 2 3
M  V30 3 1 2 4
M  V30 4 1 3 5
M  V30 5 1 3 6
M  V30 6 2 4 7
M  V30 7 2 6 8
M  V30 8 1 7 9
M  V30 9 1 9 10 CFG=1
M  V30 10 1 9 11
M  V30 11 1 11 12
M  V30 12 1 12 13
M  V30 13 1 13 14
M  V30 14 1 13 15
M  V30 15 1 7 8
M  V30 END BOND
M  V30 BEGIN COLLECTION
M  V30 MDLV30/STERAC1 ATOMS=(1 9)
M  V30 END COLLECTION
M  V30 END CTAB
M  END
>  <Drug Name>
Isoproterenol

>  <Carbon Count>
11

>  <SMILES String>
CC(C)NCC(O)C1=CC(O)=C(C=C1)O

$$$$
Amiloride
Actelion Java MolfileCreator 2.0

  0  0  0  0  0  0              0 V3000
M  V30 BEGIN CTAB
M  V30 COUNTS 15 15 0 0 0
M  V30 BEGIN ATOM
M  V30 1 Cl 9.0932 0.0 0.0 0
M  V30 2 C 7.7942 -0.75 0.0 0
M  V30 3 N 6.4951 0.0 0.0 0
M  V30 4 C 7.7942 -2.2499 0.0 0
M  V30 5 C 5.1961 -0.75 0.0 0
M  V30 6 N 6.4951 -3.0 0.0 0
M  V30 7 N 9.0932 -2.9999 0.0 0
M  V30 8 C 5.1961 -2.2499 0.0 0
M  V30 9 C 3.8971 0.0 0.0 0
M  V30 10 N 3.8971 -2.9999 0.0 0
M  V30 11 O 3.8971 1.5 0.0 0
M  V30 12 N 2.598 -0.75 0.0 0
M  V30 13 C 1.299 0.0 0.0 0
M  V30 14 N 1.299 1.5 0.0 0
M  V30 15 N 0.0 -0.75 0.0 0
M  V30 END ATOM
M  V30 BEGIN BOND
M  V30 1 1 1 2
M  V30 2 2 2 3
M  V30 3 1 2 4
M  V30 4 1 3 5
M  V30 5 2 4 6
M  V30 6 1 4 7
M  V30 7 2 5 8
M  V30 8 1 5 9
M  V30 9 1 8 10
M  V30 10 2 9 11
M  V30 11 1 9 12
M  V30 12 2 12 13
M  V30 13 1 13 14
M  V30 14 1 13 15
M  V30 15 1 6 8
M  V30 END BOND
M  V30 END CTAB
M  END
>  <Drug Name>
Amiloride

>  <Carbon Count>
6

>  <SMILES String>
Clc1nc(C(=O)\N=C(/N)N)c(nc1N)N

$$$$
Pilocarpine
Actelion Java MolfileCreator 2.0

  0  0  0  0  0  0              0 V3000
M  V30 BEGIN CTAB
M  V30 COUNTS 15 16 0 0 0
M  V30 BEGIN ATOM
M  V30 1 O 1.0934 -2.1636 0.0 0
M  V30 2 C 1.8365 -1.4945 0.0 0
M  V30 3 O 2.8147 -1.7024 0.0 0
M  V30 4 C 1.732 -0.5 0.0 0 CFG=2
M  V30 5 C 3.3147 -0.8364 0.0 0
M  V30 6 C 2.6455 -0.0932 0.0 0 CFG=2
M  V30 7 C 0.866 0.0 0.0 0
M  V30 8 C 2.8535 0.8848 0.0 0
M  V30 9 C 0.0 -0.5 0.0 0
M  V30 10 C 2.1103 1.554 0.0 0
M  V30 11 N 2.2148 2.5485 0.0 0
M  V30 12 C 1.1322 1.3461 0.0 0
M  V30 13 C 1.3013 2.9552 0.0 0
M  V30 14 C 3.0809 3.0485 0.0 0
M  V30 15 N 0.6322 2.2121 0.0 0
M  V30 END ATOM
M  V30 BEGIN BOND
M  V30 1 2 1 2
M  V30 2 1 2 3
M  V30 3 1 2 4
M  V30 4 1 3 5
M  V30 5 1 4 6
M  V30 6 1 4 7 CFG=1
M  V30 7 1 6 8 CFG=1
M  V30 8 1 7 9
M  V30 9 1 8 10
M  V30 10 1 10 11
M  V30 11 2 10 12
M  V30 12 1 11 13
M  V30 13 1 11 14
M  V30 14 1 12 15
M  V30 15 1 5 6
M  V30 16 2 13 15
M  V30 END BOND
M  V30 BEGIN COLLECTION
M  V30 MDLV30/STEABS ATOMS=(2 4 6)
M  V30 END COLLECTION
M  V30 END CTAB
M  END
>  <Drug Name>
Pilocarpine

>  <Carbon Count>
11

>  <SMILES String>
CC[C@H]1[C@H](COC1=O)CC2=CN=CN2C

$$$$
Sulbactam
Actelion Java MolfileCreator 2.0

  0  0  0  0  0  0              0 V3000
M  V30 BEGIN CTAB
M  V30 COUNTS 15 16 0 0 0
M  V30 BEGIN ATOM
M  V30 1 S 4.9721 -1.2546 0.0 0
M  V30 2 O 6.3424 -1.8647 0.0 0
M  V30 3 O 6.1856 -0.3729 0.0 0
M  V30 4 C 3.9684 -0.1398 0.0 0
M  V30 5 C 4.2221 -2.5536 0.0 0 CFG=1
M  V30 6 C 2.598 -0.75 0.0 0 CFG=1
M  V30 7 C 4.9721 0.9747 0.0 0
M  V30 8 C 3.5048 1.2866 0.0 0
M  V30 9 N 2.7548 -2.2417 0.0 0
M  V30 10 C 3.9102 -4.0208 0.0 0
M  V30 11 C 1.299 0.0 0.0 0
M  V30 12 C 2.443 -3.709 0.0 0
M  V30 13 O 1.299 1.5 0.0 0
M  V30 14 O 0.0 -0.75 0.0 0
M  V30 15 O 1.185 -4.5259 0.0 0
M  V30 END ATOM
M  V30 BEGIN BOND
M  V30 1 2 1 2
M  V30 2 2 1 3
M  V30 3 1 1 4
M  V30 4 1 5 1 CFG=3
M  V30 5 1 4 6
M  V30 6 1 4 7
M  V30 7 1 4 8
M  V30 8 1 5 9
M  V30 9 1 5 10
M  V30 10 1 6 11 CFG=1
M  V30 11 1 9 12
M  V30 12 2 11 13
M  V30 13 1 11 14
M  V30 14 2 12 15
M  V30 15 1 6 9
M  V30 16 1 10 12
M  V30 END BOND
M  V30 BEGIN COLLECTION
M  V30 MDLV30/STEABS ATOMS=(2 5 6)
M  V30 END COLLECTION
M  V30 END CTAB
M  END
>  <Drug Name>
Sulbactam

>  <Carbon Count>
8

>  <SMILES String>
CC1([C@H](C(O)=O)N2[C@@](S1(=O)=O)([H])CC2=O)C

$$$$
Lamivudine
Actelion Java MolfileCreator 2.0

  0  0  0  0  0  0              0 V3000
M  V30 BEGIN CTAB
M  V30 COUNTS 15 16 0 0 0
M  V30 BEGIN ATOM
M  V30 1 S 3.9683 -0.1398 0.0 0
M  V30 2 C 2.598 -0.75 0.0 0 CFG=1
M  V30 3 C 4.972 -1.2546 0.0 0
M  V30 4 O 2.7548 -2.2417 0.0 0
M  V30 5 C 1.299 0.0 0.0 0
M  V30 6 C 4.222 -2.5536 0.0 0 CFG=2
M  V30 7 O 0.0 -0.75 0.0 0
M  V30 8 N 4.8321 -3.9239 0.0 0
M  V30 9 C 3.9505 -5.1374 0.0 0
M  V30 10 C 6.3239 -4.0807 0.0 0
M  V30 11 O 2.4587 -4.9807 0.0 0
M  V30 12 N 4.5606 -6.5078 0.0 0
M  V30 13 C 6.934 -5.451 0.0 0
M  V30 14 C 6.0524 -6.6646 0.0 0
M  V30 15 N 6.6625 -8.0349 0.0 0
M  V30 END ATOM
M  V30 BEGIN BOND
M  V30 1 1 1 2
M  V30 2 1 1 3
M  V30 3 1 2 4
M  V30 4 1 2 5 CFG=1
M  V30 5 1 3 6
M  V30 6 1 5 7
M  V30 7 1 6 8 CFG=1
M  V30 8 1 8 9
M  V30 9 1 8 10
M  V30 10 2 9 11
M  V30 11 1 9 12
M  V30 12 2 10 13
M  V30 13 2 12 14
M  V30 14 1 14 15
M  V30 15 1 4 6
M  V30 16 1 13 14
M  V30 END BOND
M  V30 BEGIN COLLECTION
M  V30 MDLV30/STEABS ATOMS=(2 2 6)
M  V30 END COLLECTION
M  V30 END CTAB
M  END
>  <Drug Name>
Lamivudine

>  <Carbon Count>
8

>  <SMILES String>
NC1=NC(N([C@@H]2CS[C@@H](O2)CO)C=C1)=O

$$$$
Carbidopa
Actelion Java MolfileCreator 2.0

  0  0  0  0  0  0              0 V3000
M  V30 BEGIN CTAB
M  V30 COUNTS 16 16 0 0 0
M  V30 BEGIN ATOM
M  V30 1 O 5.1961 -0.75 0.0 0
M  V30 2 C 3.8971 0.0 0.0 0
M  V30 3 O 3.8971 1.5 0.0 0
M  V30 4 C 2.598 -0.75 0.0 0 CFG=1
M  V30 5 N 2.598 -2.25 0.0 0
M  V30 6 C 1.299 0.0 0.0 0
M  V30 7 C 3.8971 -1.5 0.0 0
M  V30 8 N 1.299 -3.0 0.0 0
M  V30 9 C 0.0 -0.75 0.0 0
M  V30 10 C -1.299 0.0 0.0 0
M  V30 11 C 0.0 -2.2499 0.0 0
M  V30 12 C -2.598 -0.7499 0.0 0
M  V30 13 C -1.299 -2.9999 0.0 0
M  V30 14 O -3.8971 0.0 0.0 0
M  V30 15 C -2.598 -2.2499 0.0 0
M  V30 16 O -3.8971 -2.9999 0.0 0
M  V30 END ATOM
M  V30 BEGIN BOND
M  V30 1 2 1 2
M  V30 2 1 2 3
M  V30 3 1 2 4
M  V30 4 1 4 5
M  V30 5 1 4 6
M  V30 6 1 4 7 CFG=3
M  V30 7 1 5 8
M  V30 8 1 6 9
M  V30 9 2 9 10
M  V30 10 1 9 11
M  V30 11 1 10 12
M  V30 12 2 11 13
M  V30 13 1 12 14
M  V30 14 2 12 15
M  V30 15 1 15 16
M  V30 16 1 13 15
M  V30 END BOND
M  V30 BEGIN COLLECTION
M  V30 MDLV30/STEABS ATOMS=(1 4)
M  V30 END COLLECTION
M  V30 END CTAB
M  END
>  <Drug Name>
Carbidopa

>  <Carbon Count>
10

>  <SMILES String>
O=C(O)[C@@](NN)(Cc1cc(O)c(O)cc1)C

$$$$
Prilocaine
Actelion Java MolfileCreator 2.0

  0  0  0  0  0  0              0 V3000
M  V30 BEGIN CTAB
M  V30 COUNTS 16 16 0 0 0
M  V30 BEGIN ATOM
M  V30 1 O 4.3301 0.9999 0.0 0
M  V30 2 C 4.3301 0.0 0.0 0
M  V30 3 N 5.1961 -0.5 0.0 0
M  V30 4 C 3.4641 -0.5 0.0 0 CFG=1
M  V30 5 C 6.0621 0.0 0.0 0
M  V30 6 N 2.598 0.0 0.0 0
M  V30 7 C 3.4641 -1.5 0.0 0
M  V30 8 C 6.9282 -0.5 0.0 0
M  V30 9 C 6.0621 0.9999 0.0 0
M  V30 10 C 1.732 -0.5 0.0 0
M  V30 11 C 7.7942 0.0 0.0 0
M  V30 12 C 6.9282 -1.5 0.0 0
M  V30 13 C 6.9282 1.4999 0.0 0
M  V30 14 C 0.866 0.0 0.0 0
M  V30 15 C 7.7942 0.9999 0.0 0
M  V30 16 C 0.0 -0.5 0.0 0
M  V30 END ATOM
M  V30 BEGIN BOND
M  V30 1 2 1 2
M  V30 2 1 2 3
M  V30 3 1 2 4
M  V30 4 1 3 5
M  V30 5 1 4 6
M  V30 6 1 4 7 CFG=3
M  V30 7 2 5 8
M  V30 8 1 5 9
M  V30 9 1 6 10
M  V30 10 1 8 11
M  V30 11 1 8 12
M  V30 12 2 9 13
M  V30 13 1 10 14
M  V30 14 2 11 15
M  V30 15 1 14 16
M  V30 16 1 13 15
M  V30 END BOND
M  V30 BEGIN COLLECTION
M  V30 MDLV30/STERAC1 ATOMS=(1 4)
M  V30 END COLLECTION
M  V30 END CTAB
M  END
>  <Drug Name>
Prilocaine

>  <Carbon Count>
13

>  <SMILES String>
O=C(C(C)NCCC)NC1=CC=CC=C1C

$$$$
Butalbital
Actelion Java MolfileCreator 2.0

  0  0  0  0  0  0              0 V3000
M  V30 BEGIN CTAB
M  V30 COUNTS 16 16 0 0 0
M  V30 BEGIN ATOM
M  V30 1 O -2.598 -1.9999 0.0 0
M  V30 2 C -1.732 -1.4999 0.0 0
M  V30 3 N -0.866 -1.9999 0.0 0
M  V30 4 N -1.732 -0.4999 0.0 0
M  V30 5 C 0.0 -1.5 0.0 0
M  V30 6 C -0.866 0.0 0.0 0
M  V30 7 O 0.866 -2.0 0.0 0
M  V30 8 C 0.0 -0.5 0.0 0
M  V30 9 O -0.866 1.0 0.0 0
M  V30 10 C 0.866 0.0 0.0 0
M  V30 11 C 0.866 -1.0 0.0 0
M  V30 12 C 0.866 0.9999 0.0 0
M  V30 13 C 1.732 -0.5 0.0 0
M  V30 14 C 1.732 1.4999 0.0 0
M  V30 15 C 1.732 0.4999 0.0 0
M  V30 16 C 2.598 -1.0 0.0 0
M  V30 END ATOM
M  V30 BEGIN BOND
M  V30 1 2 1 2
M  V30 2 1 2 3
M  V30 3 1 2 4
M  V30 4 1 3 5
M  V30 5 1 4 6
M  V30 6 2 5 7
M  V30 7 1 5 8
M  V30 8 2 6 9
M  V30 9 1 8 10
M  V30 10 1 8 11
M  V30 11 1 10 12
M  V30 12 1 11 13
M  V30 13 2 12 14
M  V30 14 1 13 15
M  V30 15 1 13 16
M  V30 16 1 6 8
M  V30 END BOND
M  V30 END CTAB
M  END
>  <Drug Name>
Butalbital

>  <Carbon Count>
11

>  <SMILES String>
O=C(N1)NC(C(CC(C)C)(CC=C)C1=O)=O

$$$$
Bupropion
Actelion Java MolfileCreator 2.0

  0  0  0  0  0  0              0 V3000
M  V30 BEGIN CTAB
M  V30 COUNTS 16 16 0 0 0
M  V30 BEGIN ATOM
M  V30 1 Cl 9.0932 0.0 0.0 0
M  V30 2 C 7.7942 -0.75 0.0 0
M  V30 3 C 6.4951 0.0 0.0 0
M  V30 4 C 7.7942 -2.2499 0.0 0
M  V30 5 C 5.1961 -0.75 0.0 0
M  V30 6 C 6.4951 -3.0 0.0 0
M  V30 7 C 3.8971 0.0 0.0 0
M  V30 8 C 5.1961 -2.2499 0.0 0
M  V30 9 O 3.8971 1.5 0.0 0
M  V30 10 C 2.598 -0.75 0.0 0 CFG=1
M  V30 11 N 1.299 0.0 0.0 0
M  V30 12 C 2.598 -2.25 0.0 0
M  V30 13 C 0.0 -0.75 0.0 0
M  V30 14 C 0.7499 -2.049 0.0 0
M  V30 15 C -1.299 -1.4999 0.0 0
M  V30 16 C -0.7499 0.549 0.0 0
M  V30 END ATOM
M  V30 BEGIN BOND
M  V30 1 1 1 2
M  V30 2 2 2 3
M  V30 3 1 2 4
M  V30 4 1 3 5
M  V30 5 2 4 6
M  V30 6 1 5 7
M  V30 7 2 5 8
M  V30 8 2 7 9
M  V30 9 1 7 10
M  V30 10 1 10 11
M  V30 11 1 10 12 CFG=3
M  V30 12 1 11 13
M  V30 13 1 13 14
M  V30 14 1 13 15
M  V30 15 1 13 16
M  V30 16 1 6 8
M  V30 END BOND
M  V30 BEGIN COLLECTION
M  V30 MDLV30/STERAC1 ATOMS=(1 10)
M  V30 END COLLECTION
M  V30 END CTAB
M  END
>  <Drug Name>
Bupropion

>  <Carbon Count>
13

>  <SMILES String>
CC(C(C1=CC(Cl)=CC=C1)=O)NC(C)(C)C

$$$$
Procarbazine
Actelion Java MolfileCreator 2.0

  0  0  0  0  0  0              0 V3000
M  V30 BEGIN CTAB
M  V30 COUNTS 16 16 0 0 0
M  V30 BEGIN ATOM
M  V30 1 O 6.9282 -1.4999 0.0 0
M  V30 2 C 6.0621 -2.0 0.0 0
M  V30 3 N 6.0621 -3.0 0.0 0
M  V30 4 C 5.1961 -1.4999 0.0 0
M  V30 5 C 5.1961 -3.4999 0.0 0
M  V30 6 C 5.1961 -0.5 0.0 0
M  V30 7 C 4.3301 -1.9999 0.0 0
M  V30 8 C 4.3301 -2.9999 0.0 0
M  V30 9 C 5.1961 -4.5 0.0 0
M  V30 10 C 4.3301 0.0 0.0 0
M  V30 11 C 3.4641 -1.5 0.0 0
M  V30 12 C 3.4641 -0.5 0.0 0
M  V30 13 C 2.598 0.0 0.0 0
M  V30 14 N 1.732 -0.5 0.0 0
M  V30 15 N 0.866 0.0 0.0 0
M  V30 16 C 0.0 -0.5 0.0 0
M  V30 END ATOM
M  V30 BEGIN BOND
M  V30 1 2 1 2
M  V30 2 1 2 3
M  V30 3 1 2 4
M  V30 4 1 3 5
M  V30 5 2 4 6
M  V30 6 1 4 7
M  V30 7 1 5 8
M  V30 8 1 5 9
M  V30 9 1 6 10
M  V30 10 2 7 11
M  V30 11 2 10 12
M  V30 12 1 12 13
M  V30 13 1 13 14
M  V30 14 1 14 15
M  V30 15 1 15 16
M  V30 16 1 11 12
M  V30 END BOND
M  V30 END CTAB
M  END
>  <Drug Name>
Procarbazine

>  <Carbon Count>
12

>  <SMILES String>
O=C(NC(C)C)C1=CC=C(CNNC)C=C1

$$$$
Naphazoline
Actelion Java MolfileCreator 2.0

  0  0  0  0  0  0              0 V3000
M  V30 BEGIN CTAB
M  V30 COUNTS 16 18 0 0 0
M  V30 BEGIN ATOM
M  V30 1 N 2.6455 -0.0932 0.0 0
M  V30 2 C 1.732 -0.5 0.0 0
M  V30 3 C 3.3147 -0.8364 0.0 0
M  V30 4 N 1.8365 -1.4945 0.0 0
M  V30 5 C 0.866 0.0 0.0 0
M  V30 6 C 2.8147 -1.7024 0.0 0
M  V30 7 C 0.0 -0.5 0.0 0
M  V30 8 C -0.866 0.0 0.0 0
M  V30 9 C 0.0 -1.4999 0.0 0
M  V30 10 C -1.732 -0.4999 0.0 0
M  V30 11 C -0.866 1.0 0.0 0
M  V30 12 C -0.866 -1.9999 0.0 0
M  V30 13 C -1.732 -1.4999 0.0 0
M  V30 14 C -2.598 0.0 0.0 0
M  V30 15 C -1.732 1.5 0.0 0
M  V30 16 C -2.598 1.0 0.0 0
M  V30 END ATOM
M  V30 BEGIN BOND
M  V30 1 2 1 2
M  V30 2 1 1 3
M  V30 3 1 2 4
M  V30 4 1 2 5
M  V30 5 1 3 6
M  V30 6 1 5 7
M  V30 7 1 7 8
M  V30 8 2 7 9
M  V30 9 1 8 10
M  V30 10 2 8 11
M  V30 11 1 9 12
M  V30 12 1 10 13
M  V30 13 2 10 14
M  V30 14 1 11 15
M  V30 15 1 14 16
M  V30 16 1 4 6
M  V30 17 2 12 13
M  V30 18 2 15 16
M  V30 END BOND
M  V30 END CTAB
M  END
>  <Drug Name>
Naphazoline

>  <Carbon Count>
14

>  <SMILES String>
C1(CC2=CC=CC3=C2C=CC=C3)=NCCN1

$$$$
Tipiracil
Actelion Java MolfileCreator 2.0

  0  0  0  0  0  0              0 V3000
M  V30 BEGIN CTAB
M  V30 COUNTS 16 17 0 0 0
M  V30 BEGIN ATOM
M  V30 1 Cl 0.866 -1.9999 0.0 0
M  V30 2 C 1.732 -1.4999 0.0 0
M  V30 3 C 2.598 -1.9999 0.0 0
M  V30 4 C 1.732 -0.5 0.0 0
M  V30 5 O 2.598 -3.0 0.0 0
M  V30 6 N 3.4641 -1.4999 0.0 0
M  V30 7 N 2.598 0.0 0.0 0
M  V30 8 C 0.866 0.0 0.0 0
M  V30 9 C 3.4641 -0.5 0.0 0
M  V30 10 N 0.0 -0.5 0.0 0
M  V30 11 O 4.3301 0.0 0.0 0
M  V30 12 C -0.9135 -0.0932 0.0 0
M  V30 13 C -0.1045 -1.4945 0.0 0
M  V30 14 N -1.1214 0.8848 0.0 0
M  V30 15 C -1.5826 -0.8364 0.0 0
M  V30 16 C -1.0826 -1.7024 0.0 0
M  V30 END ATOM
M  V30 BEGIN BOND
M  V30 1 1 1 2
M  V30 2 1 2 3
M  V30 3 2 2 4
M  V30 4 2 3 5
M  V30 5 1 3 6
M  V30 6 1 4 7
M  V30 7 1 4 8
M  V30 8 1 6 9
M  V30 9 1 8 10
M  V30 10 2 9 11
M  V30 11 1 10 12
M  V30 12 1 10 13
M  V30 13 2 12 14
M  V30 14 1 12 15
M  V30 15 1 13 16
M  V30 16 1 7 9
M  V30 17 1 15 16
M  V30 END BOND
M  V30 END CTAB
M  END
>  <Drug Name>
Tipiracil

>  <Carbon Count>
9

>  <SMILES String>
O=C1NC(C(Cl)=C(CN2C(CCC2)=N)N1)=O

$$$$
Tipiracil
Actelion Java MolfileCreator 2.0

  0  0  0  0  0  0              0 V3000
M  V30 BEGIN CTAB
M  V30 COUNTS 16 17 0 0 0
M  V30 BEGIN ATOM
M  V30 1 Cl 0.866 -1.9999 0.0 0
M  V30 2 C 1.732 -1.4999 0.0 0
M  V30 3 C 2.598 -1.9999 0.0 0
M  V30 4 C 1.732 -0.5 0.0 0
M  V30 5 O 2.598 -3.0 0.0 0
M  V30 6 N 3.4641 -1.4999 0.0 0
M  V30 7 N 2.598 0.0 0.0 0
M  V30 8 C 0.866 0.0 0.0 0
M  V30 9 C 3.4641 -0.5 0.0 0
M  V30 10 N 0.0 -0.5 0.0 0
M  V30 11 O 4.3301 0.0 0.0 0
M  V30 12 C -0.9135 -0.0932 0.0 0
M  V30 13 C -0.1045 -1.4945 0.0 0
M  V30 14 N -1.1214 0.8848 0.0 0
M  V30 15 C -1.5826 -0.8364 0.0 0
M  V30 16 C -1.0826 -1.7024 0.0 0
M  V30 END ATOM
M  V30 BEGIN BOND
M  V30 1 1 1 2
M  V30 2 1 2 3
M  V30 3 2 2 4
M  V30 4 2 3 5
M  V30 5 1 3 6
M  V30 6 1 4 7
M  V30 7 1 4 8
M  V30 8 1 6 9
M  V30 9 1 8 10
M  V30 10 2 9 11
M  V30 11 1 10 12
M  V30 12 1 10 13
M  V30 13 2 12 14
M  V30 14 1 12 15
M  V30 15 1 13 16
M  V30 16 1 7 9
M  V30 17 1 15 16
M  V30 END BOND
M  V30 END CTAB
M  END
>  <Drug Name>
Tipiracil

>  <Carbon Count>
9

>  <SMILES String>
O=C1NC(C(Cl)=C(CN2C(CCC2)=N)N1)=O

$$$$
Isosorbide Dinitrate
Actelion Java MolfileCreator 2.0

  0  0  0  0  0  0              0 V3000
M  V30 BEGIN CTAB
M  V30 COUNTS 16 17 0 0 0
M  V30 BEGIN ATOM
M  V30 1 O 2.598 0.0 0.0 0
M  V30 2 N 1.732 -0.5 0.0 0 CHG=1
M  V30 3 O 0.866 0.0 0.0 0
M  V30 4 O 1.732 -1.5 0.0 0 CHG=-1
M  V30 5 C 0.0 -0.5 0.0 0 CFG=2
M  V30 6 C -0.9135 -0.0932 0.0 0 CFG=1
M  V30 7 C -0.1045 -1.4945 0.0 0
M  V30 8 O -1.4135 0.7727 0.0 0
M  V30 9 C -1.5826 -0.8364 0.0 0 CFG=2
M  V30 10 O -1.0826 -1.7024 0.0 0
M  V30 11 C -2.3916 0.5648 0.0 0
M  V30 12 C -2.4962 -0.4296 0.0 0 CFG=1
M  V30 13 O -3.3622 -0.9296 0.0 0
M  V30 14 N -4.2282 -0.4296 0.0 0 CHG=1
M  V30 15 O -4.2282 0.5703 0.0 0
M  V30 16 O -5.0942 -0.9296 0.0 0 CHG=-1
M  V30 END ATOM
M  V30 BEGIN BOND
M  V30 1 2 1 2
M  V30 2 1 2 3
M  V30 3 1 2 4
M  V30 4 1 5 3 CFG=1
M  V30 5 1 5 6
M  V30 6 1 5 7
M  V30 7 1 6 8 CFG=3
M  V30 8 1 6 9
M  V30 9 1 7 10
M  V30 10 1 8 11
M  V30 11 1 9 12
M  V30 12 1 12 13 CFG=3
M  V30 13 1 13 14
M  V30 14 2 14 15
M  V30 15 1 14 16
M  V30 16 1 9 10 CFG=3
M  V30 17 1 11 12
M  V30 END BOND
M  V30 BEGIN COLLECTION
M  V30 MDLV30/STEABS ATOMS=(4 5 6 9 12)
M  V30 END COLLECTION
M  V30 END CTAB
M  END
>  <Drug Name>
Isosorbide Dinitrate

>  <Carbon Count>
6

>  <SMILES String>
[H][C@]12OC[C@H](O[N+]([O-])=O)[C@]1(OC[C@H]2O[N+]([O-])=O)[H]

$$$$
Stavudine
Actelion Java MolfileCreator 2.0

  0  0  0  0  0  0              0 V3000
M  V30 BEGIN CTAB
M  V30 COUNTS 16 17 0 0 0
M  V30 BEGIN ATOM
M  V30 1 O 6.1923 1.486 0.0 0
M  V30 2 C 7.0739 0.2724 0.0 0
M  V30 3 N 6.4638 -1.0978 0.0 0
M  V30 4 N 8.5657 0.4292 0.0 0
M  V30 5 C 7.3455 -2.3113 0.0 0
M  V30 6 C 4.972 -1.2546 0.0 0 CFG=2
M  V30 7 C 9.4474 -0.7842 0.0 0
M  V30 8 C 8.8373 -2.1545 0.0 0
M  V30 9 O 3.9683 -0.1398 0.0 0
M  V30 10 C 4.222 -2.5536 0.0 0
M  V30 11 O 10.9392 -0.6274 0.0 0
M  V30 12 C 9.719 -3.368 0.0 0
M  V30 13 C 2.598 -0.75 0.0 0 CFG=1
M  V30 14 C 2.7548 -2.2417 0.0 0
M  V30 15 C 1.299 0.0 0.0 0
M  V30 16 O 0.0 -0.75 0.0 0
M  V30 END ATOM
M  V30 BEGIN BOND
M  V30 1 2 1 2
M  V30 2 1 2 3
M  V30 3 1 2 4
M  V30 4 1 3 5
M  V30 5 1 6 3 CFG=1
M  V30 6 1 4 7
M  V30 7 2 5 8
M  V30 8 1 6 9
M  V30 9 1 6 10
M  V30 10 2 7 11
M  V30 11 1 8 12
M  V30 12 1 9 13
M  V30 13 2 10 14
M  V30 14 1 13 15 CFG=1
M  V30 15 1 15 16
M  V30 16 1 7 8
M  V30 17 1 13 14
M  V30 END BOND
M  V30 BEGIN COLLECTION
M  V30 MDLV30/STEABS ATOMS=(2 6 13)
M  V30 END COLLECTION
M  V30 END CTAB
M  END
>  <Drug Name>
Stavudine

>  <Carbon Count>
10

>  <SMILES String>
OC[C@H](C=C1)O[C@H]1N(C(N2)=O)C=C(C)C2=O

$$$$
Phenazopyridine
Actelion Java MolfileCreator 2.0

  0  0  0  0  0  0              0 V3000
M  V30 BEGIN CTAB
M  V30 COUNTS 16 17 0 0 0
M  V30 BEGIN ATOM
M  V30 1 N 3.4641 1.5 0.0 0
M  V30 2 C 2.598 1.0 0.0 0
M  V30 3 C 4.3301 1.0 0.0 0
M  V30 4 N 1.732 1.5 0.0 0
M  V30 5 C 2.598 0.0 0.0 0
M  V30 6 N 5.1961 1.5 0.0 0
M  V30 7 C 4.3301 0.0 0.0 0
M  V30 8 N 1.732 -0.5 0.0 0
M  V30 9 C 3.4641 -0.4999 0.0 0
M  V30 10 N 0.866 0.0 0.0 0
M  V30 11 C 0.0 -0.5 0.0 0
M  V30 12 C -0.866 0.0 0.0 0
M  V30 13 C 0.0 -1.4999 0.0 0
M  V30 14 C -1.732 -0.4999 0.0 0
M  V30 15 C -0.866 -1.9999 0.0 0
M  V30 16 C -1.732 -1.4999 0.0 0
M  V30 END ATOM
M  V30 BEGIN BOND
M  V30 1 2 1 2
M  V30 2 1 1 3
M  V30 3 1 2 4
M  V30 4 1 2 5
M  V30 5 1 3 6
M  V30 6 2 3 7
M  V30 7 1 5 8
M  V30 8 2 5 9
M  V30 9 2 8 10
M  V30 10 1 10 11
M  V30 11 2 11 12
M  V30 12 1 11 13
M  V30 13 1 12 14
M  V30 14 2 13 15
M  V30 15 2 14 16
M  V30 16 1 7 9
M  V30 17 1 15 16
M  V30 END BOND
M  V30 END CTAB
M  END
>  <Drug Name>
Phenazopyridine

>  <Carbon Count>
11

>  <SMILES String>
NC1=NC(N)=C(/N=N/C2=CC=CC=C2)C=C1

$$$$
Acyclovir
Actelion Java MolfileCreator 2.0

  0  0  0  0  0  0              0 V3000
M  V30 BEGIN CTAB
M  V30 COUNTS 16 17 0 0 0
M  V30 BEGIN ATOM
M  V30 1 O 7.56 0.8716 0.0 0
M  V30 2 C 6.8909 0.1284 0.0 0
M  V30 3 N 7.1999 -0.8225 0.0 0
M  V30 4 C 5.9128 0.3364 0.0 0
M  V30 5 C 6.5308 -1.5657 0.0 0
M  V30 6 N 5.4128 1.2024 0.0 0
M  V30 7 C 5.2436 -0.4067 0.0 0
M  V30 8 N 5.5526 -1.3577 0.0 0
M  V30 9 N 6.8398 -2.5167 0.0 0
M  V30 10 C 4.4346 0.9945 0.0 0
M  V30 11 N 4.3301 0.0 0.0 0
M  V30 12 C 3.4641 -0.5 0.0 0
M  V30 13 O 2.598 0.0 0.0 0
M  V30 14 C 1.732 -0.5 0.0 0
M  V30 15 C 0.866 0.0 0.0 0
M  V30 16 O 0.0 -0.5 0.0 0
M  V30 END ATOM
M  V30 BEGIN BOND
M  V30 1 2 1 2
M  V30 2 1 2 3
M  V30 3 1 2 4
M  V30 4 2 3 5
M  V30 5 1 4 6
M  V30 6 2 4 7
M  V30 7 1 5 8
M  V30 8 1 5 9
M  V30 9 2 6 10
M  V30 10 1 7 11
M  V30 11 1 11 12
M  V30 12 1 12 13
M  V30 13 1 13 14
M  V30 14 1 14 15
M  V30 15 1 15 16
M  V30 16 1 7 8
M  V30 17 1 10 11
M  V30 END BOND
M  V30 END CTAB
M  END
>  <Drug Name>
Acyclovir

>  <Carbon Count>
8

>  <SMILES String>
OCCOCN(C=N1)C2=C1C(NC(N)=N2)=O

$$$$
Sulfathiazole
Actelion Java MolfileCreator 2.0

  0  0  0  0  0  0              0 V3000
M  V30 BEGIN CTAB
M  V30 COUNTS 16 17 0 0 0
M  V30 BEGIN ATOM
M  V30 1 S 2.598 -0.75 0.0 0
M  V30 2 O 1.848 -2.049 0.0 0
M  V30 3 O 3.348 -2.049 0.0 0
M  V30 4 N 1.299 0.0 0.0 0
M  V30 5 C 3.8971 0.0 0.0 0
M  V30 6 C 0.0 -0.75 0.0 0
M  V30 7 C 5.1961 -0.75 0.0 0
M  V30 8 C 3.8971 1.5 0.0 0
M  V30 9 S -1.3703 -0.1398 0.0 0
M  V30 10 N -0.1567 -2.2417 0.0 0
M  V30 11 C 6.4952 0.0 0.0 0
M  V30 12 C 5.1961 2.25 0.0 0
M  V30 13 C -2.374 -1.2546 0.0 0
M  V30 14 C -1.624 -2.5536 0.0 0
M  V30 15 C 6.4952 1.5 0.0 0
M  V30 16 N 7.7942 2.25 0.0 0
M  V30 END ATOM
M  V30 BEGIN BOND
M  V30 1 2 1 2
M  V30 2 2 1 3
M  V30 3 1 1 4
M  V30 4 1 1 5
M  V30 5 1 4 6
M  V30 6 2 5 7
M  V30 7 1 5 8
M  V30 8 1 6 9
M  V30 9 2 6 10
M  V30 10 1 7 11
M  V30 11 2 8 12
M  V30 12 1 9 13
M  V30 13 1 10 14
M  V30 14 2 11 15
M  V30 15 1 15 16
M  V30 16 1 12 15
M  V30 17 2 13 14
M  V30 END BOND
M  V30 END CTAB
M  END
>  <Drug Name>
Sulfathiazole

>  <Carbon Count>
9

>  <SMILES String>
NC1=CC=C(C=C1)S(NC2=NC=CS2)(=O)=O

$$$$
Emtricitabine
Actelion Java MolfileCreator 2.0

  0  0  0  0  0  0              0 V3000
M  V30 BEGIN CTAB
M  V30 COUNTS 16 17 0 0 0
M  V30 BEGIN ATOM
M  V30 1 S 3.9683 -0.1398 0.0 0
M  V30 2 C 2.598 -0.75 0.0 0 CFG=1
M  V30 3 C 4.972 -1.2546 0.0 0
M  V30 4 O 2.7548 -2.2417 0.0 0
M  V30 5 C 1.299 0.0 0.0 0
M  V30 6 C 4.222 -2.5536 0.0 0 CFG=2
M  V30 7 O 0.0 -0.75 0.0 0
M  V30 8 N 4.8321 -3.9239 0.0 0
M  V30 9 C 3.9505 -5.1374 0.0 0
M  V30 10 C 6.3239 -4.0807 0.0 0
M  V30 11 O 2.4587 -4.9807 0.0 0
M  V30 12 N 4.5606 -6.5078 0.0 0
M  V30 13 C 6.934 -5.451 0.0 0
M  V30 14 C 6.0524 -6.6646 0.0 0
M  V30 15 F 8.4258 -5.6078 0.0 0
M  V30 16 N 6.6625 -8.0349 0.0 0
M  V30 END ATOM
M  V30 BEGIN BOND
M  V30 1 1 1 2
M  V30 2 1 1 3
M  V30 3 1 2 4
M  V30 4 1 2 5 CFG=1
M  V30 5 1 3 6
M  V30 6 1 5 7
M  V30 7 1 6 8 CFG=1
M  V30 8 1 8 9
M  V30 9 1 8 10
M  V30 10 2 9 11
M  V30 11 1 9 12
M  V30 12 2 10 13
M  V30 13 2 12 14
M  V30 14 1 13 15
M  V30 15 1 14 16
M  V30 16 1 4 6
M  V30 17 1 13 14
M  V30 END BOND
M  V30 BEGIN COLLECTION
M  V30 MDLV30/STEABS ATOMS=(2 2 6)
M  V30 END COLLECTION
M  V30 END CTAB
M  END
>  <Drug Name>
Emtricitabine

>  <Carbon Count>
8

>  <SMILES String>
OC[C@H](SC1)O[C@H]1N2C=C(F)C(N)=NC2=O

$$$$
Naproxen
Actelion Java MolfileCreator 2.0

  0  0  0  0  0  0              0 V3000
M  V30 BEGIN CTAB
M  V30 COUNTS 17 18 0 0 0
M  V30 BEGIN ATOM
M  V30 1 O 3.8971 0.0 0.0 0
M  V30 2 C 2.598 -0.75 0.0 0
M  V30 3 O 2.598 -2.25 0.0 0
M  V30 4 C 1.299 0.0 0.0 0 CFG=1
M  V30 5 C 1.299 1.5 0.0 0
M  V30 6 C 0.0 -0.75 0.0 0
M  V30 7 C 2.598 2.25 0.0 0
M  V30 8 C 0.0 2.25 0.0 0
M  V30 9 C 2.598 3.75 0.0 0
M  V30 10 C 0.0 3.75 0.0 0
M  V30 11 C 1.299 4.5 0.0 0
M  V30 12 C 3.8971 4.5 0.0 0
M  V30 13 C 1.299 6.0 0.0 0
M  V30 14 C 3.8971 6.0 0.0 0
M  V30 15 C 2.598 6.75 0.0 0
M  V30 16 O 2.598 8.25 0.0 0
M  V30 17 C 1.299 9.0 0.0 0
M  V30 END ATOM
M  V30 BEGIN BOND
M  V30 1 2 1 2
M  V30 2 1 2 3
M  V30 3 1 2 4
M  V30 4 1 4 5
M  V30 5 1 4 6 CFG=3
M  V30 6 2 5 7
M  V30 7 1 5 8
M  V30 8 1 7 9
M  V30 9 2 8 10
M  V30 10 1 9 11
M  V30 11 2 9 12
M  V30 12 2 11 13
M  V30 13 1 12 14
M  V30 14 1 13 15
M  V30 15 1 15 16
M  V30 16 1 16 17
M  V30 17 1 10 11
M  V30 18 2 14 15
M  V30 END BOND
M  V30 BEGIN COLLECTION
M  V30 MDLV30/STERAC1 ATOMS=(1 4)
M  V30 END COLLECTION
M  V30 END CTAB
M  END
>  <Drug Name>
Naproxen

>  <Carbon Count>
14

>  <SMILES String>
O=C([C@H](C1=CC2=CC=C(OC)C=C2C=C1)C)O

$$$$
Chlorothiazide
Actelion Java MolfileCreator 2.0

  0  0  0  0  0  0              0 V3000
M  V30 BEGIN CTAB
M  V30 COUNTS 17 18 0 0 0
M  V30 BEGIN ATOM
M  V30 1 Cl 1.299 0.0 0.0 0
M  V30 2 C 0.0 -0.75 0.0 0
M  V30 3 C -1.299 0.0 0.0 0
M  V30 4 C 0.0 -2.25 0.0 0
M  V30 5 S -1.299 1.5 0.0 0
M  V30 6 C -2.598 -0.75 0.0 0
M  V30 7 C -1.299 -3.0 0.0 0
M  V30 8 O 0.2009 1.5 0.0 0
M  V30 9 O -2.799 1.5 0.0 0
M  V30 10 N -1.299 3.0 0.0 0
M  V30 11 C -2.598 -2.25 0.0 0
M  V30 12 N -1.299 -4.5 0.0 0
M  V30 13 S -3.8971 -3.0 0.0 0
M  V30 14 C -2.598 -5.25 0.0 0
M  V30 15 O -4.647 -1.7009 0.0 0
M  V30 16 O -5.397 -3.0 0.0 0
M  V30 17 N -3.8971 -4.5 0.0 0
M  V30 END ATOM
M  V30 BEGIN BOND
M  V30 1 1 1 2
M  V30 2 2 2 3
M  V30 3 1 2 4
M  V30 4 1 3 5
M  V30 5 1 3 6
M  V30 6 2 4 7
M  V30 7 2 5 8
M  V30 8 2 5 9
M  V30 9 1 5 10
M  V30 10 2 6 11
M  V30 11 1 7 12
M  V30 12 1 11 13
M  V30 13 1 12 14
M  V30 14 2 13 15
M  V30 15 2 13 16
M  V30 16 1 13 17
M  V30 17 1 7 11
M  V30 18 2 14 17
M  V30 END BOND
M  V30 END CTAB
M  END
>  <Drug Name>
Chlorothiazide

>  <Carbon Count>
7

>  <SMILES String>
O=S(C1=C2C=C(Cl)C(S(N)(=O)=O)=C1)(NC=N2)=O

$$$$
Hydrochlorothiazide
Actelion Java MolfileCreator 2.0

  0  0  0  0  0  0              0 V3000
M  V30 BEGIN CTAB
M  V30 COUNTS 17 18 0 0 0
M  V30 BEGIN ATOM
M  V30 1 Cl 1.299 0.0 0.0 0
M  V30 2 C 0.0 -0.75 0.0 0
M  V30 3 C -1.299 0.0 0.0 0
M  V30 4 C 0.0 -2.25 0.0 0
M  V30 5 S -1.299 1.5 0.0 0
M  V30 6 C -2.598 -0.75 0.0 0
M  V30 7 C -1.299 -3.0 0.0 0
M  V30 8 O 0.2009 1.5 0.0 0
M  V30 9 O -2.799 1.5 0.0 0
M  V30 10 N -1.299 3.0 0.0 0
M  V30 11 C -2.598 -2.25 0.0 0
M  V30 12 N -1.299 -4.5 0.0 0
M  V30 13 S -3.8971 -3.0 0.0 0
M  V30 14 C -2.598 -5.25 0.0 0
M  V30 15 O -4.647 -1.7009 0.0 0
M  V30 16 O -5.397 -3.0 0.0 0
M  V30 17 N -3.8971 -4.5 0.0 0
M  V30 END ATOM
M  V30 BEGIN BOND
M  V30 1 1 1 2
M  V30 2 2 2 3
M  V30 3 1 2 4
M  V30 4 1 3 5
M  V30 5 1 3 6
M  V30 6 2 4 7
M  V30 7 2 5 8
M  V30 8 2 5 9
M  V30 9 1 5 10
M  V30 10 2 6 11
M  V30 11 1 7 12
M  V30 12 1 11 13
M  V30 13 1 12 14
M  V30 14 2 13 15
M  V30 15 2 13 16
M  V30 16 1 13 17
M  V30 17 1 7 11
M  V30 18 1 14 17
M  V30 END BOND
M  V30 END CTAB
M  END
>  <Drug Name>
Hydrochlorothiazide

>  <Carbon Count>
7

>  <SMILES String>
NS(=O)(C1=C(C=C2NCNS(=O)(C2=C1)=O)Cl)=O

$$$$
Avibactam
Actelion Java MolfileCreator 2.0

  0  0  0  0  0  0              0 V3000
M  V30 BEGIN CTAB
M  V30 COUNTS 17 18 0 0 0
M  V30 BEGIN ATOM
M  V30 1 S 1.732 -0.5 0.0 0
M  V30 2 O 1.232 -1.366 0.0 0
M  V30 3 O 2.232 0.366 0.0 0
M  V30 4 O 0.866 0.0 0.0 0
M  V30 5 O 2.598 -0.9999 0.0 0
M  V30 6 N 0.0 -0.5 0.0 0
M  V30 7 C -0.9135 -0.0932 0.0 0
M  V30 8 C -0.1045 -1.4945 0.0 0 CFG=2
M  V30 9 O -1.1214 0.8848 0.0 0
M  V30 10 N -1.5826 -0.8364 0.0 0
M  V30 11 C -0.6066 -2.7625 0.0 0
M  V30 12 C -1.0826 -1.7024 0.0 0
M  V30 13 C -2.1889 -2.058 0.0 0 CFG=1
M  V30 14 C -1.6011 -2.867 0.0 0
M  V30 15 C -3.1854 -2.1417 0.0 0
M  V30 16 O -3.7562 -1.3206 0.0 0
M  V30 17 N -3.6112 -3.0465 0.0 0
M  V30 END ATOM
M  V30 BEGIN BOND
M  V30 1 2 1 2
M  V30 2 2 1 3
M  V30 3 1 1 4
M  V30 4 1 1 5
M  V30 5 1 4 6
M  V30 6 1 6 7
M  V30 7 1 8 6 CFG=3
M  V30 8 2 7 9
M  V30 9 1 7 10
M  V30 10 1 8 11
M  V30 11 1 8 12
M  V30 12 1 10 13
M  V30 13 1 11 14
M  V30 14 1 13 15 CFG=1
M  V30 15 2 15 16
M  V30 16 1 15 17
M  V30 17 1 10 12
M  V30 18 1 13 14
M  V30 END BOND
M  V30 BEGIN COLLECTION
M  V30 MDLV30/STEABS ATOMS=(2 8 13)
M  V30 END COLLECTION
M  V30 END CTAB
M  END
>  <Drug Name>
Avibactam

>  <Carbon Count>
7

>  <SMILES String>
NC([C@H]1[N@@](C[C@@H](CC1)N2OS(=O)(O)=O)C2=O)=O

$$$$
Cytarabine
Actelion Java MolfileCreator 2.0

  0  0  0  0  0  0              0 V3000
M  V30 BEGIN CTAB
M  V30 COUNTS 17 18 0 0 0
M  V30 BEGIN ATOM
M  V30 1 O 4.4902 -2.4544 0.0 0
M  V30 2 C 4.897 -1.5408 0.0 0
M  V30 3 N 5.8915 -1.4363 0.0 0
M  V30 4 N 4.3092 -0.7318 0.0 0
M  V30 5 C 6.2982 -0.5228 0.0 0
M  V30 6 C 4.7159 0.1816 0.0 0
M  V30 7 C 3.3147 -0.8364 0.0 0 CFG=2
M  V30 8 N 7.2928 -0.4182 0.0 0
M  V30 9 C 5.7105 0.2861 0.0 0
M  V30 10 O 2.6455 -0.0932 0.0 0
M  V30 11 C 2.8147 -1.7024 0.0 0 CFG=1
M  V30 12 C 1.732 -0.5 0.0 0 CFG=1
M  V30 13 O 3.2214 -2.6159 0.0 0
M  V30 14 C 1.8365 -1.4945 0.0 0 CFG=1
M  V30 15 C 0.866 0.0 0.0 0
M  V30 16 O 1.0934 -2.1636 0.0 0
M  V30 17 O 0.0 -0.5 0.0 0
M  V30 END ATOM
M  V30 BEGIN BOND
M  V30 1 2 1 2
M  V30 2 1 2 3
M  V30 3 1 2 4
M  V30 4 2 3 5
M  V30 5 1 4 6
M  V30 6 1 7 4 CFG=1
M  V30 7 1 5 8
M  V30 8 1 5 9
M  V30 9 1 7 10
M  V30 10 1 7 11
M  V30 11 1 10 12
M  V30 12 1 11 13 CFG=1
M  V30 13 1 11 14
M  V30 14 1 12 15 CFG=1
M  V30 15 1 14 16 CFG=3
M  V30 16 1 15 17
M  V30 17 2 6 9
M  V30 18 1 12 14
M  V30 END BOND
M  V30 BEGIN COLLECTION
M  V30 MDLV30/STEABS ATOMS=(4 7 11 12 14)
M  V30 END COLLECTION
M  V30 END CTAB
M  END
>  <Drug Name>
Cytarabine

>  <Carbon Count>
9

>  <SMILES String>
O[C@H]1[C@H](O)[C@H](N2C(N=C(N)C=C2)=O)O[C@@H]1CO

$$$$
Cytarabine
Actelion Java MolfileCreator 2.0

  0  0  0  0  0  0              0 V3000
M  V30 BEGIN CTAB
M  V30 COUNTS 17 18 0 0 0
M  V30 BEGIN ATOM
M  V30 1 O 4.4902 -2.4544 0.0 0
M  V30 2 C 4.897 -1.5408 0.0 0
M  V30 3 N 5.8915 -1.4363 0.0 0
M  V30 4 N 4.3092 -0.7318 0.0 0
M  V30 5 C 6.2982 -0.5228 0.0 0
M  V30 6 C 4.7159 0.1816 0.0 0
M  V30 7 C 3.3147 -0.8364 0.0 0 CFG=2
M  V30 8 N 7.2928 -0.4182 0.0 0
M  V30 9 C 5.7105 0.2861 0.0 0
M  V30 10 O 2.6455 -0.0932 0.0 0
M  V30 11 C 2.8147 -1.7024 0.0 0 CFG=1
M  V30 12 C 1.732 -0.5 0.0 0 CFG=1
M  V30 13 O 3.2214 -2.6159 0.0 0
M  V30 14 C 1.8365 -1.4945 0.0 0 CFG=1
M  V30 15 C 0.866 0.0 0.0 0
M  V30 16 O 1.0934 -2.1636 0.0 0
M  V30 17 O 0.0 -0.5 0.0 0
M  V30 END ATOM
M  V30 BEGIN BOND
M  V30 1 2 1 2
M  V30 2 1 2 3
M  V30 3 1 2 4
M  V30 4 2 3 5
M  V30 5 1 4 6
M  V30 6 1 7 4 CFG=1
M  V30 7 1 5 8
M  V30 8 1 5 9
M  V30 9 1 7 10
M  V30 10 1 7 11
M  V30 11 1 10 12
M  V30 12 1 11 13 CFG=1
M  V30 13 1 11 14
M  V30 14 1 12 15 CFG=1
M  V30 15 1 14 16 CFG=3
M  V30 16 1 15 17
M  V30 17 2 6 9
M  V30 18 1 12 14
M  V30 END BOND
M  V30 BEGIN COLLECTION
M  V30 MDLV30/STEABS ATOMS=(4 7 11 12 14)
M  V30 END COLLECTION
M  V30 END CTAB
M  END
>  <Drug Name>
Cytarabine

>  <Carbon Count>
9

>  <SMILES String>
NC(C=CN1[C@H]2[C@@H](O)[C@H](O)[C@@H](CO)O2)=NC1=O

$$$$
Sulfamethoxazole
Actelion Java MolfileCreator 2.0

  0  0  0  0  0  0              0 V3000
M  V30 BEGIN CTAB
M  V30 COUNTS 17 18 0 0 0
M  V30 BEGIN ATOM
M  V30 1 S 2.598 -0.75 0.0 0
M  V30 2 O 1.848 -2.049 0.0 0
M  V30 3 O 3.348 -2.049 0.0 0
M  V30 4 N 1.299 0.0 0.0 0
M  V30 5 C 3.8971 0.0 0.0 0
M  V30 6 C 0.0 -0.75 0.0 0
M  V30 7 C 5.1961 -0.75 0.0 0
M  V30 8 C 3.8971 1.5 0.0 0
M  V30 9 N -1.3703 -0.1398 0.0 0
M  V30 10 C -0.1567 -2.2417 0.0 0
M  V30 11 C 6.4952 0.0 0.0 0
M  V30 12 C 5.1961 2.25 0.0 0
M  V30 13 O -2.374 -1.2546 0.0 0
M  V30 14 C -1.624 -2.5536 0.0 0
M  V30 15 C 6.4952 1.5 0.0 0
M  V30 16 C -2.2341 -3.9239 0.0 0
M  V30 17 N 7.7942 2.25 0.0 0
M  V30 END ATOM
M  V30 BEGIN BOND
M  V30 1 2 1 2
M  V30 2 2 1 3
M  V30 3 1 1 4
M  V30 4 1 1 5
M  V30 5 1 4 6
M  V30 6 2 5 7
M  V30 7 1 5 8
M  V30 8 2 6 9
M  V30 9 1 6 10
M  V30 10 1 7 11
M  V30 11 2 8 12
M  V30 12 1 9 13
M  V30 13 2 10 14
M  V30 14 2 11 15
M  V30 15 1 14 16
M  V30 16 1 15 17
M  V30 17 1 12 15
M  V30 18 1 13 14
M  V30 END BOND
M  V30 END CTAB
M  END
>  <Drug Name>
Sulfamethoxazole

>  <Carbon Count>
10

>  <SMILES String>
CC1=CC(NS(C2=CC=C(N)C=C2)(=O)=O)=NO1

$$$$
Procaine
Actelion Java MolfileCreator 2.0

  0  0  0  0  0  0              0 V3000
M  V30 BEGIN CTAB
M  V30 COUNTS 17 17 0 0 0
M  V30 BEGIN ATOM
M  V30 1 O 6.0621 0.0 0.0 0
M  V30 2 C 5.1961 -0.5 0.0 0
M  V30 3 O 4.3301 0.0 0.0 0
M  V30 4 C 5.1961 -1.4999 0.0 0
M  V30 5 C 3.4641 -0.5 0.0 0
M  V30 6 C 4.3301 -1.9999 0.0 0
M  V30 7 C 6.0621 -2.0 0.0 0
M  V30 8 C 2.598 0.0 0.0 0
M  V30 9 C 4.3301 -2.9999 0.0 0
M  V30 10 C 6.0621 -3.0 0.0 0
M  V30 11 N 1.732 -0.5 0.0 0
M  V30 12 C 5.1961 -3.5 0.0 0
M  V30 13 C 1.732 -1.5 0.0 0
M  V30 14 C 0.866 0.0 0.0 0
M  V30 15 N 5.1961 -4.5 0.0 0
M  V30 16 C 2.598 -1.9999 0.0 0
M  V30 17 C 0.0 -0.5 0.0 0
M  V30 END ATOM
M  V30 BEGIN BOND
M  V30 1 2 1 2
M  V30 2 1 2 3
M  V30 3 1 2 4
M  V30 4 1 3 5
M  V30 5 2 4 6
M  V30 6 1 4 7
M  V30 7 1 5 8
M  V30 8 1 6 9
M  V30 9 2 7 10
M  V30 10 1 8 11
M  V30 11 2 9 12
M  V30 12 1 11 13
M  V30 13 1 11 14
M  V30 14 1 12 15
M  V30 15 1 13 16
M  V30 16 1 14 17
M  V30 17 1 10 12
M  V30 END BOND
M  V30 END CTAB
M  END
>  <Drug Name>
Procaine

>  <Carbon Count>
13

>  <SMILES String>
NC1=CC=C(C(OCCN(CC)CC)=O)C=C1

$$$$
Lidocaine
Actelion Java MolfileCreator 2.0

  0  0  0  0  0  0              0 V3000
M  V30 BEGIN CTAB
M  V30 COUNTS 17 17 0 0 0
M  V30 BEGIN ATOM
M  V30 1 O 3.4641 -1.5 0.0 0
M  V30 2 C 3.4641 -0.5 0.0 0
M  V30 3 N 4.3301 0.0 0.0 0
M  V30 4 C 2.598 0.0 0.0 0
M  V30 5 C 5.1961 -0.5 0.0 0
M  V30 6 N 1.732 -0.5 0.0 0
M  V30 7 C 5.1961 -1.5 0.0 0
M  V30 8 C 6.0621 0.0 0.0 0
M  V30 9 C 1.732 -1.5 0.0 0
M  V30 10 C 0.866 0.0 0.0 0
M  V30 11 C 6.0621 -2.0 0.0 0
M  V30 12 C 4.3301 -1.9999 0.0 0
M  V30 13 C 6.9282 -0.5 0.0 0
M  V30 14 C 6.0621 0.9999 0.0 0
M  V30 15 C 2.598 -1.9999 0.0 0
M  V30 16 C 0.0 -0.5 0.0 0
M  V30 17 C 6.9282 -1.5 0.0 0
M  V30 END ATOM
M  V30 BEGIN BOND
M  V30 1 2 1 2
M  V30 2 1 2 3
M  V30 3 1 2 4
M  V30 4 1 3 5
M  V30 5 1 4 6
M  V30 6 2 5 7
M  V30 7 1 5 8
M  V30 8 1 6 9
M  V30 9 1 6 10
M  V30 10 1 7 11
M  V30 11 1 7 12
M  V30 12 2 8 13
M  V30 13 1 8 14
M  V30 14 1 9 15
M  V30 15 1 10 16
M  V30 16 2 11 17
M  V30 17 1 13 17
M  V30 END BOND
M  V30 END CTAB
M  END
>  <Drug Name>
Lidocaine

>  <Carbon Count>
14

>  <SMILES String>
CC1=CC=CC(C)=C1NC(CN(CC)CC)=O

$$$$
Methocarbamol
Actelion Java MolfileCreator 2.0

  0  0  0  0  0  0              0 V3000
M  V30 BEGIN CTAB
M  V30 COUNTS 17 17 0 0 0
M  V30 BEGIN ATOM
M  V30 1 O 6.0621 0.0 0.0 0
M  V30 2 C 5.1961 -0.5 0.0 0
M  V30 3 O 4.3301 0.0 0.0 0
M  V30 4 N 5.1961 -1.4999 0.0 0
M  V30 5 C 3.4641 -0.5 0.0 0
M  V30 6 C 2.598 0.0 0.0 0 CFG=2
M  V30 7 O 2.598 1.0 0.0 0
M  V30 8 C 1.732 -0.5 0.0 0
M  V30 9 O 0.866 0.0 0.0 0
M  V30 10 C 0.0 -0.5 0.0 0
M  V30 11 C -0.866 0.0 0.0 0
M  V30 12 C 0.0 -1.4999 0.0 0
M  V30 13 O -0.866 1.0 0.0 0
M  V30 14 C -1.732 -0.4999 0.0 0
M  V30 15 C -0.866 -1.9999 0.0 0
M  V30 16 C -1.732 1.5 0.0 0
M  V30 17 C -1.732 -1.4999 0.0 0
M  V30 END ATOM
M  V30 BEGIN BOND
M  V30 1 2 1 2
M  V30 2 1 2 3
M  V30 3 1 2 4
M  V30 4 1 3 5
M  V30 5 1 5 6
M  V30 6 1 6 7 CFG=1
M  V30 7 1 6 8
M  V30 8 1 8 9
M  V30 9 1 9 10
M  V30 10 2 10 11
M  V30 11 1 10 12
M  V30 12 1 11 13
M  V30 13 1 11 14
M  V30 14 2 12 15
M  V30 15 1 13 16
M  V30 16 2 14 17
M  V30 17 1 15 17
M  V30 END BOND
M  V30 BEGIN COLLECTION
M  V30 MDLV30/STERAC1 ATOMS=(1 6)
M  V30 END COLLECTION
M  V30 END CTAB
M  END
>  <Drug Name>
Methocarbamol

>  <Carbon Count>
11

>  <SMILES String>
OC(COC(N)=O)COC1=CC=CC=C1OC

$$$$
Albuterol
Actelion Java MolfileCreator 2.0

  0  0  0  0  0  0              0 V3000
M  V30 BEGIN CTAB
M  V30 COUNTS 17 17 0 0 0
M  V30 BEGIN ATOM
M  V30 1 O 6.0621 -1.9999 0.0 0
M  V30 2 C 5.1961 -1.4999 0.0 0
M  V30 3 C 5.1961 -0.5 0.0 0
M  V30 4 C 4.3301 -1.9999 0.0 0
M  V30 5 C 4.3301 0.0 0.0 0
M  V30 6 C 6.0621 0.0 0.0 0
M  V30 7 C 3.4641 -1.5 0.0 0
M  V30 8 C 3.4641 -0.5 0.0 0
M  V30 9 O 6.0621 0.9999 0.0 0
M  V30 10 C 2.598 0.0 0.0 0 CFG=1
M  V30 11 O 2.598 1.0 0.0 0
M  V30 12 C 1.732 -0.5 0.0 0
M  V30 13 N 0.866 0.0 0.0 0
M  V30 14 C 0.0 -0.5 0.0 0
M  V30 15 C 0.4999 -1.366 0.0 0
M  V30 16 C -0.866 -0.9999 0.0 0
M  V30 17 C -0.4999 0.366 0.0 0
M  V30 END ATOM
M  V30 BEGIN BOND
M  V30 1 1 1 2
M  V30 2 2 2 3
M  V30 3 1 2 4
M  V30 4 1 3 5
M  V30 5 1 3 6
M  V30 6 2 4 7
M  V30 7 2 5 8
M  V30 8 1 6 9
M  V30 9 1 8 10
M  V30 10 1 10 11 CFG=3
M  V30 11 1 10 12
M  V30 12 1 12 13
M  V30 13 1 13 14
M  V30 14 1 14 15
M  V30 15 1 14 16
M  V30 16 1 14 17
M  V30 17 1 7 8
M  V30 END BOND
M  V30 BEGIN COLLECTION
M  V30 MDLV30/STERAC1 ATOMS=(1 10)
M  V30 END COLLECTION
M  V30 END CTAB
M  END
>  <Drug Name>
Albuterol

>  <Carbon Count>
13

>  <SMILES String>
CC(NCC(O)C1=CC(CO)=C(C=C1)O)(C)C

$$$$
Brimonidine
Actelion Java MolfileCreator 2.0

  0  0  0  0  0  0              0 V3000
M  V30 BEGIN CTAB
M  V30 COUNTS 17 19 0 0 0
M  V30 BEGIN ATOM
M  V30 1 Br 0.866 -1.9999 0.0 0
M  V30 2 C 1.732 -1.4999 0.0 0
M  V30 3 C 2.598 -1.9999 0.0 0
M  V30 4 C 1.732 -0.5 0.0 0
M  V30 5 N 2.598 -2.9999 0.0 0
M  V30 6 C 3.4641 -1.4999 0.0 0
M  V30 7 N 0.866 0.0 0.0 0
M  V30 8 C 2.598 0.0 0.0 0
M  V30 9 C 3.4641 -3.5 0.0 0
M  V30 10 N 4.3301 -2.0 0.0 0
M  V30 11 C 3.4641 -0.5 0.0 0
M  V30 12 C 0.0 -0.5 0.0 0
M  V30 13 C 4.3301 -3.0 0.0 0
M  V30 14 N -0.9135 -0.0932 0.0 0
M  V30 15 N -0.1045 -1.4945 0.0 0
M  V30 16 C -1.5826 -0.8364 0.0 0
M  V30 17 C -1.0826 -1.7024 0.0 0
M  V30 END ATOM
M  V30 BEGIN BOND
M  V30 1 1 1 2
M  V30 2 1 2 3
M  V30 3 2 2 4
M  V30 4 2 3 5
M  V30 5 1 3 6
M  V30 6 1 4 7
M  V30 7 1 4 8
M  V30 8 1 5 9
M  V30 9 2 6 10
M  V30 10 1 6 11
M  V30 11 1 7 12
M  V30 12 2 9 13
M  V30 13 2 12 14
M  V30 14 1 12 15
M  V30 15 1 14 16
M  V30 16 1 15 17
M  V30 17 2 8 11
M  V30 18 1 10 13
M  V30 19 1 16 17
M  V30 END BOND
M  V30 END CTAB
M  END
>  <Drug Name>
Brimonidine

>  <Carbon Count>
11

>  <SMILES String>
BrC1=C(NC2=NCCN2)C=CC3=NC=CN=C31

$$$$
Carisoprodol
Actelion Java MolfileCreator 2.0

  0  0  0  0  0  0              0 V3000
M  V30 BEGIN CTAB
M  V30 COUNTS 18 17 0 0 0
M  V30 BEGIN ATOM
M  V30 1 O 6.0621 0.9999 0.0 0
M  V30 2 C 6.0621 0.0 0.0 0
M  V30 3 O 5.1961 -0.5 0.0 0
M  V30 4 N 6.9282 -0.5 0.0 0
M  V30 5 C 4.3301 0.0 0.0 0
M  V30 6 C 7.7942 0.0 0.0 0
M  V30 7 C 3.4641 -0.5 0.0 0 CFG=2
M  V30 8 C 8.6602 -0.5 0.0 0
M  V30 9 C 7.7942 0.9999 0.0 0
M  V30 10 C 2.598 0.0 0.0 0
M  V30 11 C 3.4641 -1.5 0.0 0
M  V30 12 C 3.4641 0.5 0.0 0
M  V30 13 O 1.732 -0.5 0.0 0
M  V30 14 C 2.598 -2.0 0.0 0
M  V30 15 C 0.866 0.0 0.0 0
M  V30 16 C 2.598 -3.0 0.0 0
M  V30 17 O 0.866 1.0 0.0 0
M  V30 18 N 0.0 -0.5 0.0 0
M  V30 END ATOM
M  V30 BEGIN BOND
M  V30 1 2 1 2
M  V30 2 1 2 3
M  V30 3 1 2 4
M  V30 4 1 3 5
M  V30 5 1 4 6
M  V30 6 1 5 7
M  V30 7 1 6 8
M  V30 8 1 6 9
M  V30 9 1 7 10
M  V30 10 1 7 11
M  V30 11 1 7 12 CFG=3
M  V30 12 1 10 13
M  V30 13 1 11 14
M  V30 14 1 13 15
M  V30 15 1 14 16
M  V30 16 2 15 17
M  V30 17 1 15 18
M  V30 END BOND
M  V30 BEGIN COLLECTION
M  V30 MDLV30/STERAC1 ATOMS=(1 7)
M  V30 END COLLECTION
M  V30 END CTAB
M  END
>  <Drug Name>
Carisoprodol

>  <Carbon Count>
12

>  <SMILES String>
CCCC(C)(COC(N)=O)COC(NC(C)C)=O

$$$$
Benzoyl Peroxide
Actelion Java MolfileCreator 2.0

  0  0  0  0  0  0              0 V3000
M  V30 BEGIN CTAB
M  V30 COUNTS 18 19 0 0 0
M  V30 BEGIN ATOM
M  V30 1 O 4.3301 0.0 0.0 0
M  V30 2 C 3.4641 -0.5 0.0 0
M  V30 3 O 2.598 0.0 0.0 0
M  V30 4 C 3.4641 -1.5 0.0 0
M  V30 5 O 1.732 -0.5 0.0 0
M  V30 6 C 2.598 -1.9999 0.0 0
M  V30 7 C 4.3301 -2.0 0.0 0
M  V30 8 C 0.866 0.0 0.0 0
M  V30 9 C 2.598 -2.9999 0.0 0
M  V30 10 C 4.3301 -3.0 0.0 0
M  V30 11 O 0.866 1.0 0.0 0
M  V30 12 C 0.0 -0.5 0.0 0
M  V30 13 C 3.4641 -3.5 0.0 0
M  V30 14 C -0.866 0.0 0.0 0
M  V30 15 C 0.0 -1.4999 0.0 0
M  V30 16 C -1.732 -0.4999 0.0 0
M  V30 17 C -0.866 -1.9999 0.0 0
M  V30 18 C -1.732 -1.4999 0.0 0
M  V30 END ATOM
M  V30 BEGIN BOND
M  V30 1 2 1 2
M  V30 2 1 2 3
M  V30 3 1 2 4
M  V30 4 1 3 5
M  V30 5 2 4 6
M  V30 6 1 4 7
M  V30 7 1 5 8
M  V30 8 1 6 9
M  V30 9 2 7 10
M  V30 10 2 8 11
M  V30 11 1 8 12
M  V30 12 2 9 13
M  V30 13 2 12 14
M  V30 14 1 12 15
M  V30 15 1 14 16
M  V30 16 2 15 17
M  V30 17 2 16 18
M  V30 18 1 10 13
M  V30 19 1 17 18
M  V30 END BOND
M  V30 END CTAB
M  END
>  <Drug Name>
Benzoyl Peroxide

>  <Carbon Count>
14

>  <SMILES String>
O=C(OOC(C1=CC=CC=C1)=O)C2=CC=CC=C2

$$$$
Pindolol
Actelion Java MolfileCreator 2.0

  0  0  0  0  0  0              0 V3000
M  V30 BEGIN CTAB
M  V30 COUNTS 18 19 0 0 0
M  V30 BEGIN ATOM
M  V30 1 O 5.1961 -0.5 0.0 0
M  V30 2 C 6.0621 0.0 0.0 0
M  V30 3 C 4.3301 0.0 0.0 0
M  V30 4 C 6.0621 0.9999 0.0 0
M  V30 5 C 6.9282 -0.5 0.0 0
M  V30 6 C 3.4641 -0.5 0.0 0 CFG=1
M  V30 7 C 6.9282 1.4999 0.0 0
M  V30 8 C 5.319 1.6691 0.0 0
M  V30 9 C 7.7942 0.0 0.0 0
M  V30 10 O 3.4641 -1.5 0.0 0
M  V30 11 C 2.598 0.0 0.0 0
M  V30 12 N 6.7202 2.4781 0.0 0
M  V30 13 C 7.7942 0.9999 0.0 0
M  V30 14 C 5.7257 2.5826 0.0 0
M  V30 15 N 1.732 -0.5 0.0 0
M  V30 16 C 0.866 0.0 0.0 0
M  V30 17 C 0.866 1.0 0.0 0
M  V30 18 C 0.0 -0.5 0.0 0
M  V30 END ATOM
M  V30 BEGIN BOND
M  V30 1 1 1 2
M  V30 2 1 1 3
M  V30 3 2 2 4
M  V30 4 1 2 5
M  V30 5 1 3 6
M  V30 6 1 4 7
M  V30 7 1 4 8
M  V30 8 2 5 9
M  V30 9 1 6 10 CFG=1
M  V30 10 1 6 11
M  V30 11 1 7 12
M  V30 12 2 7 13
M  V30 13 2 8 14
M  V30 14 1 11 15
M  V30 15 1 15 16
M  V30 16 1 16 17
M  V30 17 1 16 18
M  V30 18 1 9 13
M  V30 19 1 12 14
M  V30 END BOND
M  V30 BEGIN COLLECTION
M  V30 MDLV30/STERAC1 ATOMS=(1 6)
M  V30 END COLLECTION
M  V30 END CTAB
M  END
>  <Drug Name>
Pindolol

>  <Carbon Count>
14

>  <SMILES String>
OC(COC1=C(C=CN2)C2=CC=C1)CNC(C)C

$$$$
Arsphenamine
Actelion Java MolfileCreator 2.0

  0  0  0  0  0  0              0 V3000
M  V30 BEGIN CTAB
M  V30 COUNTS 20 19 0 0 0
M  V30 BEGIN ATOM
M  V30 1 As 1.9103 0.1583 0.0 0
M  V30 2 As 1.2675 -0.6076 0.0 0
M  V30 3 C 1.5683 1.098 0.0 0
M  V30 4 C 1.6095 -1.5473 0.0 0
M  V30 5 C 2.2111 1.8641 0.0 0
M  V30 6 C 0.5835 1.2717 0.0 0
M  V30 7 C 0.9668 -2.3133 0.0 0
M  V30 8 C 2.5944 -1.7209 0.0 0
M  V30 9 C 1.8691 2.8038 0.0 0
M  V30 10 C 0.2415 2.2114 0.0 0
M  V30 11 C 1.3088 -3.253 0.0 0
M  V30 12 C 2.9364 -2.6606 0.0 0
M  V30 13 N 2.5118 3.5698 0.0 0
M  V30 14 C 0.8843 2.9774 0.0 0
M  V30 15 N 0.666 -4.0191 0.0 0
M  V30 16 C 2.2936 -3.4267 0.0 0
M  V30 17 O 0.5422 3.9171 0.0 0
M  V30 18 O 2.6356 -4.3664 0.0 0
M  V30 19 Cl -1.1442 -0.7065 0.0 0
M  V30 20 Cl 4.3944 -0.2499 0.0 0
M  V30 END ATOM
M  V30 BEGIN BOND
M  V30 1 2 1 2 CFG=2
M  V30 2 1 1 3
M  V30 3 1 2 4
M  V30 4 2 3 5
M  V30 5 1 3 6
M  V30 6 2 4 7
M  V30 7 1 4 8
M  V30 8 1 5 9
M  V30 9 2 6 10
M  V30 10 1 7 11
M  V30 11 2 8 12
M  V30 12 1 9 13
M  V30 13 2 9 14
M  V30 14 1 11 15
M  V30 15 2 11 16
M  V30 16 1 14 17
M  V30 17 1 16 18
M  V30 18 1 10 14
M  V30 19 1 12 16
M  V30 END BOND
M  V30 END CTAB
M  END
>  <Drug Name>
Arsphenamine

>  <Carbon Count>
12

>  <SMILES String>
OC1=CC=C(/[As]=[As]/C2=CC=C(O)C(N)=C2)C=C1N

$$$$
Mepivacaine
Actelion Java MolfileCreator 2.0

  0  0  0  0  0  0              0 V3000
M  V30 BEGIN CTAB
M  V30 COUNTS 18 19 0 0 0
M  V30 BEGIN ATOM
M  V30 1 O 2.598 -2.25 0.0 0
M  V30 2 C 2.598 -0.75 0.0 0
M  V30 3 N 1.299 0.0 0.0 0
M  V30 4 C 3.8971 0.0 0.0 0 CFG=1
M  V30 5 C 0.0 -0.75 0.0 0
M  V30 6 N 5.1961 -0.75 0.0 0
M  V30 7 C 3.8971 1.4999 0.0 0
M  V30 8 C -1.299 0.0 0.0 0
M  V30 9 C 0.0 -2.25 0.0 0
M  V30 10 C 6.4951 0.0 0.0 0
M  V30 11 C 5.1961 -2.25 0.0 0
M  V30 12 C 5.1961 2.2499 0.0 0
M  V30 13 C -2.598 -0.7499 0.0 0
M  V30 14 C -1.299 1.5 0.0 0
M  V30 15 C -1.299 -2.9999 0.0 0
M  V30 16 C 1.299 -3.0 0.0 0
M  V30 17 C 6.4951 1.4999 0.0 0
M  V30 18 C -2.598 -2.2499 0.0 0
M  V30 END ATOM
M  V30 BEGIN BOND
M  V30 1 2 1 2
M  V30 2 1 2 3
M  V30 3 1 4 2 CFG=3
M  V30 4 1 3 5
M  V30 5 1 4 6
M  V30 6 1 4 7
M  V30 7 2 5 8
M  V30 8 1 5 9
M  V30 9 1 6 10
M  V30 10 1 6 11
M  V30 11 1 7 12
M  V30 12 1 8 13
M  V30 13 1 8 14
M  V30 14 2 9 15
M  V30 15 1 9 16
M  V30 16 1 10 17
M  V30 17 2 13 18
M  V30 18 1 12 17
M  V30 19 1 15 18
M  V30 END BOND
M  V30 BEGIN COLLECTION
M  V30 MDLV30/STERAC1 ATOMS=(1 4)
M  V30 END COLLECTION
M  V30 END CTAB
M  END
>  <Drug Name>
Mepivacaine

>  <Carbon Count>
15

>  <SMILES String>
CN1CCCCC1C(NC2=C(C)C=CC=C2C)=O

$$$$
Meperidine
Actelion Java MolfileCreator 2.0

  0  0  0  0  0  0              0 V3000
M  V30 BEGIN CTAB
M  V30 COUNTS 18 19 0 0 0
M  V30 BEGIN ATOM
M  V30 1 O 2.632 -1.0986 0.0 0
M  V30 2 C 3.8994 0.0 0.0 0
M  V30 3 O 5.1992 -0.7504 0.0 0
M  V30 4 C 3.8994 1.5009 0.0 0
M  V30 5 C 6.4991 0.0 0.0 0
M  V30 6 C 2.5996 0.7504 0.0 0
M  V30 7 C 5.1992 2.2513 0.0 0
M  V30 8 C 2.5996 2.2513 0.0 0
M  V30 9 C 7.7989 -0.7504 0.0 0
M  V30 10 C 1.2998 1.5009 0.0 0
M  V30 11 C 2.4469 -0.5743 0.0 0
M  V30 12 C 5.1992 3.7522 0.0 0
M  V30 13 C 2.5996 3.7522 0.0 0
M  V30 14 C 0.0 0.7504 0.0 0
M  V30 15 C 1.2998 -1.5009 0.0 0
M  V30 16 N 3.8994 4.5027 0.0 0
M  V30 17 C 0.0 -0.7504 0.0 0
M  V30 18 C 3.8994 6.0036 0.0 0
M  V30 END ATOM
M  V30 BEGIN BOND
M  V30 1 2 1 2
M  V30 2 1 2 3
M  V30 3 1 2 4
M  V30 4 1 3 5
M  V30 5 1 4 6
M  V30 6 1 4 7
M  V30 7 1 4 8
M  V30 8 1 5 9
M  V30 9 2 6 10
M  V30 10 1 6 11
M  V30 11 1 7 12
M  V30 12 1 8 13
M  V30 13 1 10 14
M  V30 14 2 11 15
M  V30 15 1 12 16
M  V30 16 2 14 17
M  V30 17 1 16 18
M  V30 18 1 13 16
M  V30 19 1 15 17
M  V30 END BOND
M  V30 END CTAB
M  END
>  <Drug Name>
Meperidine

>  <Carbon Count>
15

>  <SMILES String>
O=C(OCC)C1(C2=CC=CC=C2)CCN(C)CC1

$$$$
Gemcitabine
Actelion Java MolfileCreator 2.0

  0  0  0  0  0  0              0 V3000
M  V30 BEGIN CTAB
M  V30 COUNTS 18 19 0 0 0
M  V30 BEGIN ATOM
M  V30 1 F 4.0652 -4.0454 0.0 0
M  V30 2 C 4.2221 -2.5536 0.0 0
M  V30 3 F 5.4356 -3.4353 0.0 0
M  V30 4 C 4.9721 -1.2546 0.0 0 CFG=1
M  V30 5 C 2.7548 -2.2417 0.0 0 CFG=2
M  V30 6 O 3.9684 -0.1398 0.0 0
M  V30 7 N 6.4638 -1.0978 0.0 0
M  V30 8 O 1.6401 -3.2454 0.0 0
M  V30 9 C 2.598 -0.75 0.0 0 CFG=2
M  V30 10 C 7.3455 -2.3113 0.0 0
M  V30 11 C 7.0739 0.2724 0.0 0
M  V30 12 C 1.299 0.0 0.0 0
M  V30 13 O 6.7354 -3.6816 0.0 0
M  V30 14 N 8.8373 -2.1545 0.0 0
M  V30 15 C 8.5657 0.4292 0.0 0
M  V30 16 O 0.0 -0.75 0.0 0
M  V30 17 C 9.4474 -0.7842 0.0 0
M  V30 18 N 10.9392 -0.6274 0.0 0
M  V30 END ATOM
M  V30 BEGIN BOND
M  V30 1 1 1 2
M  V30 2 1 2 3
M  V30 3 1 2 4
M  V30 4 1 2 5
M  V30 5 1 4 6
M  V30 6 1 4 7 CFG=1
M  V30 7 1 5 8 CFG=3
M  V30 8 1 5 9
M  V30 9 1 7 10
M  V30 10 1 7 11
M  V30 11 1 9 12 CFG=1
M  V30 12 2 10 13
M  V30 13 1 10 14
M  V30 14 2 11 15
M  V30 15 1 12 16
M  V30 16 2 14 17
M  V30 17 1 17 18
M  V30 18 1 6 9
M  V30 19 1 15 17
M  V30 END BOND
M  V30 BEGIN COLLECTION
M  V30 MDLV30/STEABS ATOMS=(3 4 5 9)
M  V30 END COLLECTION
M  V30 END CTAB
M  END
>  <Drug Name>
Gemcitabine

>  <Carbon Count>
9

>  <SMILES String>
NC(C=CN1[C@@H]2O[C@H](CO)[C@@H](O)C2(F)F)=NC1=O

$$$$
Sulfisoxazole
Actelion Java MolfileCreator 2.0

  0  0  0  0  0  0              0 V3000
M  V30 BEGIN CTAB
M  V30 COUNTS 18 19 0 0 0
M  V30 BEGIN ATOM
M  V30 1 S 2.598 -0.75 0.0 0
M  V30 2 O 1.848 -2.049 0.0 0
M  V30 3 O 3.348 -2.049 0.0 0
M  V30 4 N 1.299 0.0 0.0 0
M  V30 5 C 3.8971 0.0 0.0 0
M  V30 6 C 0.0 -0.75 0.0 0
M  V30 7 C 5.1961 -0.75 0.0 0
M  V30 8 C 3.8971 1.5 0.0 0
M  V30 9 O -1.3703 -0.1398 0.0 0
M  V30 10 C -0.1567 -2.2417 0.0 0
M  V30 11 C 6.4952 0.0 0.0 0
M  V30 12 C 5.1961 2.25 0.0 0
M  V30 13 N -2.374 -1.2546 0.0 0
M  V30 14 C -1.624 -2.5536 0.0 0
M  V30 15 C 0.9579 -3.2454 0.0 0
M  V30 16 C 6.4952 1.5 0.0 0
M  V30 17 C -2.2341 -3.9239 0.0 0
M  V30 18 N 7.7942 2.25 0.0 0
M  V30 END ATOM
M  V30 BEGIN BOND
M  V30 1 2 1 2
M  V30 2 2 1 3
M  V30 3 1 1 4
M  V30 4 1 1 5
M  V30 5 1 4 6
M  V30 6 2 5 7
M  V30 7 1 5 8
M  V30 8 1 6 9
M  V30 9 2 6 10
M  V30 10 1 7 11
M  V30 11 2 8 12
M  V30 12 1 9 13
M  V30 13 1 10 14
M  V30 14 1 10 15
M  V30 15 2 11 16
M  V30 16 1 14 17
M  V30 17 1 16 18
M  V30 18 1 12 16
M  V30 19 2 13 14
M  V30 END BOND
M  V30 END CTAB
M  END
>  <Drug Name>
Sulfisoxazole

>  <Carbon Count>
11

>  <SMILES String>
CC1=C(ON=C1C)NS(=O)(=O)C2=CC=C(C=C2)N

$$$$
Chlorpheniramine
Actelion Java MolfileCreator 2.0

  0  0  0  0  0  0              0 V3000
M  V30 BEGIN CTAB
M  V30 COUNTS 19 20 0 0 0
M  V30 BEGIN ATOM
M  V30 1 Cl 6.9282 1.4999 0.0 0
M  V30 2 C 6.0621 0.9999 0.0 0
M  V30 3 C 5.1961 1.4999 0.0 0
M  V30 4 C 6.0621 0.0 0.0 0
M  V30 5 C 4.3301 0.9999 0.0 0
M  V30 6 C 5.1961 -0.5 0.0 0
M  V30 7 C 4.3301 0.0 0.0 0
M  V30 8 C 3.4641 -0.5 0.0 0 CFG=1
M  V30 9 C 3.4641 -1.5 0.0 0
M  V30 10 C 2.598 0.0 0.0 0
M  V30 11 N 2.598 -1.9999 0.0 0
M  V30 12 C 4.3301 -2.0 0.0 0
M  V30 13 C 1.732 -0.5 0.0 0
M  V30 14 C 2.598 -2.9999 0.0 0
M  V30 15 C 4.3301 -3.0 0.0 0
M  V30 16 N 0.866 0.0 0.0 0
M  V30 17 C 3.4641 -3.5 0.0 0
M  V30 18 C 0.866 1.0 0.0 0
M  V30 19 C 0.0 -0.5 0.0 0
M  V30 END ATOM
M  V30 BEGIN BOND
M  V30 1 1 1 2
M  V30 2 2 2 3
M  V30 3 1 2 4
M  V30 4 1 3 5
M  V30 5 2 4 6
M  V30 6 2 5 7
M  V30 7 1 7 8
M  V30 8 1 8 9
M  V30 9 1 8 10 CFG=1
M  V30 10 2 9 11
M  V30 11 1 9 12
M  V30 12 1 10 13
M  V30 13 1 11 14
M  V30 14 2 12 15
M  V30 15 1 13 16
M  V30 16 2 14 17
M  V30 17 1 16 18
M  V30 18 1 16 19
M  V30 19 1 6 7
M  V30 20 1 15 17
M  V30 END BOND
M  V30 BEGIN COLLECTION
M  V30 MDLV30/STERAC1 ATOMS=(1 8)
M  V30 END COLLECTION
M  V30 END CTAB
M  END
>  <Drug Name>
Chlorpheniramine

>  <Carbon Count>
16

>  <SMILES String>
CN(C)CCC(C1=NC=CC=C1)C2=CC=C(Cl)C=C2

$$$$
Brompheniramine
Actelion Java MolfileCreator 2.0

  0  0  0  0  0  0              0 V3000
M  V30 BEGIN CTAB
M  V30 COUNTS 19 20 0 0 0
M  V30 BEGIN ATOM
M  V30 1 Br 6.9282 1.4999 0.0 0
M  V30 2 C 6.0621 0.9999 0.0 0
M  V30 3 C 5.1961 1.4999 0.0 0
M  V30 4 C 6.0621 0.0 0.0 0
M  V30 5 C 4.3301 0.9999 0.0 0
M  V30 6 C 5.1961 -0.5 0.0 0
M  V30 7 C 4.3301 0.0 0.0 0
M  V30 8 C 3.4641 -0.5 0.0 0 CFG=1
M  V30 9 C 3.4641 -1.5 0.0 0
M  V30 10 C 2.598 0.0 0.0 0
M  V30 11 N 2.598 -1.9999 0.0 0
M  V30 12 C 4.3301 -2.0 0.0 0
M  V30 13 C 1.732 -0.5 0.0 0
M  V30 14 C 2.598 -2.9999 0.0 0
M  V30 15 C 4.3301 -3.0 0.0 0
M  V30 16 N 0.866 0.0 0.0 0
M  V30 17 C 3.4641 -3.5 0.0 0
M  V30 18 C 0.866 1.0 0.0 0
M  V30 19 C 0.0 -0.5 0.0 0
M  V30 END ATOM
M  V30 BEGIN BOND
M  V30 1 1 1 2
M  V30 2 2 2 3
M  V30 3 1 2 4
M  V30 4 1 3 5
M  V30 5 2 4 6
M  V30 6 2 5 7
M  V30 7 1 7 8
M  V30 8 1 8 9
M  V30 9 1 8 10 CFG=1
M  V30 10 2 9 11
M  V30 11 1 9 12
M  V30 12 1 10 13
M  V30 13 1 11 14
M  V30 14 2 12 15
M  V30 15 1 13 16
M  V30 16 2 14 17
M  V30 17 1 16 18
M  V30 18 1 16 19
M  V30 19 1 6 7
M  V30 20 1 15 17
M  V30 END BOND
M  V30 BEGIN COLLECTION
M  V30 MDLV30/STERAC1 ATOMS=(1 8)
M  V30 END COLLECTION
M  V30 END CTAB
M  END
>  <Drug Name>
Brompheniramine

>  <Carbon Count>
16

>  <SMILES String>
CN(C)CCC(C1=NC=CC=C1)C2=CC=C(Br)C=C2

$$$$
Dexbrompheniramine
Actelion Java MolfileCreator 2.0

  0  0  0  0  0  0              0 V3000
M  V30 BEGIN CTAB
M  V30 COUNTS 19 20 0 0 0
M  V30 BEGIN ATOM
M  V30 1 Br 6.9282 1.4999 0.0 0
M  V30 2 C 6.0621 0.9999 0.0 0
M  V30 3 C 5.1961 1.4999 0.0 0
M  V30 4 C 6.0621 0.0 0.0 0
M  V30 5 C 4.3301 0.9999 0.0 0
M  V30 6 C 5.1961 -0.5 0.0 0
M  V30 7 C 4.3301 0.0 0.0 0
M  V30 8 C 3.4641 -0.5 0.0 0 CFG=1
M  V30 9 C 3.4641 -1.5 0.0 0
M  V30 10 C 2.598 0.0 0.0 0
M  V30 11 N 2.598 -1.9999 0.0 0
M  V30 12 C 4.3301 -2.0 0.0 0
M  V30 13 C 1.732 -0.5 0.0 0
M  V30 14 C 2.598 -2.9999 0.0 0
M  V30 15 C 4.3301 -3.0 0.0 0
M  V30 16 N 0.866 0.0 0.0 0
M  V30 17 C 3.4641 -3.5 0.0 0
M  V30 18 C 0.866 1.0 0.0 0
M  V30 19 C 0.0 -0.5 0.0 0
M  V30 END ATOM
M  V30 BEGIN BOND
M  V30 1 1 1 2
M  V30 2 2 2 3
M  V30 3 1 2 4
M  V30 4 1 3 5
M  V30 5 2 4 6
M  V30 6 2 5 7
M  V30 7 1 7 8
M  V30 8 1 8 9
M  V30 9 1 8 10 CFG=1
M  V30 10 2 9 11
M  V30 11 1 9 12
M  V30 12 1 10 13
M  V30 13 1 11 14
M  V30 14 2 12 15
M  V30 15 1 13 16
M  V30 16 2 14 17
M  V30 17 1 16 18
M  V30 18 1 16 19
M  V30 19 1 6 7
M  V30 20 1 15 17
M  V30 END BOND
M  V30 BEGIN COLLECTION
M  V30 MDLV30/STEABS ATOMS=(1 8)
M  V30 END COLLECTION
M  V30 END CTAB
M  END
>  <Drug Name>
Dexbrompheniramine

>  <Carbon Count>
16

>  <SMILES String>
CN(CC[C@H](C1=CC=CC=N1)C2=CC=C(C=C2)Br)C

$$$$
Dorzolamide
Actelion Java MolfileCreator 2.0

  0  0  0  0  0  0              0 V3000
M  V30 BEGIN CTAB
M  V30 COUNTS 19 20 0 0 0
M  V30 BEGIN ATOM
M  V30 1 S 6.4952 1.5 0.0 0
M  V30 2 O 7.9951 1.4999 0.0 0
M  V30 3 O 7.2451 2.799 0.0 0
M  V30 4 C 5.1961 2.25 0.0 0
M  V30 5 C 6.4952 0.0 0.0 0 CFG=2
M  V30 6 S 4.8842 3.7172 0.0 0
M  V30 7 C 3.8971 1.5 0.0 0
M  V30 8 C 5.1961 -0.75 0.0 0
M  V30 9 C 7.7942 -0.75 0.0 0
M  V30 10 C 3.3925 3.874 0.0 0
M  V30 11 C 2.7824 2.5037 0.0 0
M  V30 12 C 3.8971 0.0 0.0 0 CFG=2
M  V30 13 S 2.6425 5.173 0.0 0
M  V30 14 N 2.598 -0.75 0.0 0
M  V30 15 O 3.9415 5.923 0.0 0
M  V30 16 O 1.3434 4.423 0.0 0
M  V30 17 N 1.8925 6.4721 0.0 0
M  V30 18 C 1.299 0.0 0.0 0
M  V30 19 C 0.0 -0.75 0.0 0
M  V30 END ATOM
M  V30 BEGIN BOND
M  V30 1 2 1 2
M  V30 2 2 1 3
M  V30 3 1 1 4
M  V30 4 1 1 5
M  V30 5 1 4 6
M  V30 6 2 4 7
M  V30 7 1 5 8
M  V30 8 1 5 9 CFG=1
M  V30 9 1 6 10
M  V30 10 1 7 11
M  V30 11 1 7 12
M  V30 12 1 10 13
M  V30 13 1 12 14 CFG=3
M  V30 14 2 13 15
M  V30 15 2 13 16
M  V30 16 1 13 17
M  V30 17 1 14 18
M  V30 18 1 18 19
M  V30 19 1 8 12
M  V30 20 2 10 11
M  V30 END BOND
M  V30 BEGIN COLLECTION
M  V30 MDLV30/STEABS ATOMS=(2 5 12)
M  V30 END COLLECTION
M  V30 END CTAB
M  END
>  <Drug Name>
Dorzolamide

>  <Carbon Count>
10

>  <SMILES String>
CCNC1CC(C)S(=O)(=O)c2sc(cc12)S(=O)(=O)N

$$$$
Oxymetazoline
Actelion Java MolfileCreator 2.0

  0  0  0  0  0  0              0 V3000
M  V30 BEGIN CTAB
M  V30 COUNTS 19 20 0 0 0
M  V30 BEGIN ATOM
M  V30 1 O 2.598 -3.0 0.0 0
M  V30 2 C 2.598 -1.9999 0.0 0
M  V30 3 C 3.4641 -1.5 0.0 0
M  V30 4 C 1.732 -1.5 0.0 0
M  V30 5 C 3.4641 -0.5 0.0 0
M  V30 6 C 4.3301 -2.0 0.0 0
M  V30 7 C 1.732 -0.5 0.0 0
M  V30 8 C 0.866 -2.0 0.0 0
M  V30 9 C 2.598 0.0 0.0 0
M  V30 10 C 4.8301 -1.1339 0.0 0
M  V30 11 C 5.1961 -2.5 0.0 0
M  V30 12 C 3.8301 -2.866 0.0 0
M  V30 13 C 0.866 0.0 0.0 0
M  V30 14 C 2.598 1.0 0.0 0
M  V30 15 C 0.0 -0.5 0.0 0
M  V30 16 N -0.9135 -0.0932 0.0 0
M  V30 17 N -0.1045 -1.4945 0.0 0
M  V30 18 C -1.5826 -0.8364 0.0 0
M  V30 19 C -1.0826 -1.7024 0.0 0
M  V30 END ATOM
M  V30 BEGIN BOND
M  V30 1 1 1 2
M  V30 2 2 2 3
M  V30 3 1 2 4
M  V30 4 1 3 5
M  V30 5 1 3 6
M  V30 6 2 4 7
M  V30 7 1 4 8
M  V30 8 2 5 9
M  V30 9 1 6 10
M  V30 10 1 6 11
M  V30 11 1 6 12
M  V30 12 1 7 13
M  V30 13 1 9 14
M  V30 14 1 13 15
M  V30 15 2 15 16
M  V30 16 1 15 17
M  V30 17 1 16 18
M  V30 18 1 17 19
M  V30 19 1 7 9
M  V30 20 1 18 19
M  V30 END BOND
M  V30 END CTAB
M  END
>  <Drug Name>
Oxymetazoline

>  <Carbon Count>
16

>  <SMILES String>
CC1=CC(C(C)(C)C)=C(C(C)=C1CC2=NCCN2)O

$$$$
Sulfabenzamide
Actelion Java MolfileCreator 2.0

  0  0  0  0  0  0              0 V3000
M  V30 BEGIN CTAB
M  V30 COUNTS 19 20 0 0 0
M  V30 BEGIN ATOM
M  V30 1 S 3.8971 0.0 0.0 0
M  V30 2 O 4.6471 1.299 0.0 0
M  V30 3 O 3.1471 1.299 0.0 0
M  V30 4 N 2.598 -0.75 0.0 0
M  V30 5 C 5.1961 -0.75 0.0 0
M  V30 6 C 1.299 0.0 0.0 0
M  V30 7 C 5.1961 -2.25 0.0 0
M  V30 8 C 6.4952 0.0 0.0 0
M  V30 9 O 1.299 1.5 0.0 0
M  V30 10 C 0.0 -0.75 0.0 0
M  V30 11 C 6.4952 -3.0 0.0 0
M  V30 12 C 7.7942 -0.75 0.0 0
M  V30 13 C -1.299 0.0 0.0 0
M  V30 14 C 0.0 -2.25 0.0 0
M  V30 15 C 7.7942 -2.25 0.0 0
M  V30 16 C -2.598 -0.75 0.0 0
M  V30 17 C -1.299 -3.0 0.0 0
M  V30 18 N 9.0932 -3.0 0.0 0
M  V30 19 C -2.598 -2.25 0.0 0
M  V30 END ATOM
M  V30 BEGIN BOND
M  V30 1 2 1 2
M  V30 2 2 1 3
M  V30 3 1 1 4
M  V30 4 1 1 5
M  V30 5 1 4 6
M  V30 6 2 5 7
M  V30 7 1 5 8
M  V30 8 2 6 9
M  V30 9 1 6 10
M  V30 10 1 7 11
M  V30 11 2 8 12
M  V30 12 2 10 13
M  V30 13 1 10 14
M  V30 14 2 11 15
M  V30 15 1 13 16
M  V30 16 2 14 17
M  V30 17 1 15 18
M  V30 18 2 16 19
M  V30 19 1 12 15
M  V30 20 1 17 19
M  V30 END BOND
M  V30 END CTAB
M  END
>  <Drug Name>
Sulfabenzamide

>  <Carbon Count>
13

>  <SMILES String>
NC1=CC=C(S(NC(C2=CC=CC=C2)=O)(=O)=O)C=C1

$$$$
Tramadol
Actelion Java MolfileCreator 2.0

  0  0  0  0  0  0              0 V3000
M  V30 BEGIN CTAB
M  V30 COUNTS 19 20 0 0 0
M  V30 BEGIN ATOM
M  V30 1 O -0.866 1.0 0.0 0
M  V30 2 C 0.0 1.5 0.0 0
M  V30 3 C -0.866 0.0 0.0 0
M  V30 4 C 0.866 1.0 0.0 0
M  V30 5 C 0.0 2.5 0.0 0
M  V30 6 C 1.732 1.5 0.0 0
M  V30 7 C 0.866 3.0 0.0 0
M  V30 8 C 1.732 2.5 0.0 0
M  V30 9 C 2.598 1.0 0.0 0 CFG=2
M  V30 10 O 1.732 0.5 0.0 0
M  V30 11 C 2.598 0.0 0.0 0 CFG=2
M  V30 12 C 3.4641 1.4999 0.0 0
M  V30 13 C 3.4641 -0.5 0.0 0
M  V30 14 C 1.732 -0.5 0.0 0
M  V30 15 C 4.3301 1.0 0.0 0
M  V30 16 C 4.3301 0.0 0.0 0
M  V30 17 N 1.732 -1.5 0.0 0
M  V30 18 C 2.598 -2.0 0.0 0
M  V30 19 C 0.866 -2.0 0.0 0
M  V30 END ATOM
M  V30 BEGIN BOND
M  V30 1 1 1 2
M  V30 2 1 1 3
M  V30 3 2 2 4
M  V30 4 1 2 5
M  V30 5 1 4 6
M  V30 6 2 5 7
M  V30 7 2 6 8
M  V30 8 1 6 9
M  V30 9 1 9 10 CFG=3
M  V30 10 1 9 11
M  V30 11 1 9 12
M  V30 12 1 11 13
M  V30 13 1 11 14 CFG=3
M  V30 14 1 12 15
M  V30 15 1 13 16
M  V30 16 1 14 17
M  V30 17 1 17 18
M  V30 18 1 17 19
M  V30 19 1 7 8
M  V30 20 1 15 16
M  V30 END BOND
M  V30 BEGIN COLLECTION
M  V30 MDLV30/STEABS ATOMS=(2 9 11)
M  V30 END COLLECTION
M  V30 END CTAB
M  END
>  <Drug Name>
Tramadol

>  <Carbon Count>
16

>  <SMILES String>
O[C@]1([C@H](CCCC1)CN(C)C)C2=CC(OC)=CC=C2

$$$$
Propranolol
Actelion Java MolfileCreator 2.0

  0  0  0  0  0  0              0 V3000
M  V30 BEGIN CTAB
M  V30 COUNTS 19 20 0 0 0
M  V30 BEGIN ATOM
M  V30 1 O 5.1961 -0.5 0.0 0
M  V30 2 C 6.0621 0.0 0.0 0
M  V30 3 C 4.3301 0.0 0.0 0
M  V30 4 C 6.9282 -0.5 0.0 0
M  V30 5 C 6.0621 0.9999 0.0 0
M  V30 6 C 3.4641 -0.5 0.0 0 CFG=1
M  V30 7 C 7.7942 0.0 0.0 0
M  V30 8 C 6.9282 -1.4999 0.0 0
M  V30 9 C 6.9282 1.4999 0.0 0
M  V30 10 O 3.4641 -1.5 0.0 0
M  V30 11 C 2.598 0.0 0.0 0
M  V30 12 C 7.7942 0.9999 0.0 0
M  V30 13 C 8.6602 -0.5 0.0 0
M  V30 14 C 7.7942 -1.9999 0.0 0
M  V30 15 N 1.732 -0.5 0.0 0
M  V30 16 C 8.6602 -1.5 0.0 0
M  V30 17 C 0.866 0.0 0.0 0
M  V30 18 C 0.866 1.0 0.0 0
M  V30 19 C 0.0 -0.5 0.0 0
M  V30 END ATOM
M  V30 BEGIN BOND
M  V30 1 1 1 2
M  V30 2 1 1 3
M  V30 3 1 2 4
M  V30 4 2 2 5
M  V30 5 1 3 6
M  V30 6 1 4 7
M  V30 7 2 4 8
M  V30 8 1 5 9
M  V30 9 1 6 10 CFG=1
M  V30 10 1 6 11
M  V30 11 1 7 12
M  V30 12 2 7 13
M  V30 13 1 8 14
M  V30 14 1 11 15
M  V30 15 1 13 16
M  V30 16 1 15 17
M  V30 17 1 17 18
M  V30 18 1 17 19
M  V30 19 2 9 12
M  V30 20 2 14 16
M  V30 END BOND
M  V30 BEGIN COLLECTION
M  V30 MDLV30/STERAC1 ATOMS=(1 6)
M  V30 END COLLECTION
M  V30 END CTAB
M  END
>  <Drug Name>
Propranolol

>  <Carbon Count>
16

>  <SMILES String>
OC(COC1=C2C=CC=CC2=CC=C1)CNC(C)C

$$$$
Diclofenac
Actelion Java MolfileCreator 2.0

  0  0  0  0  0  0              0 V3000
M  V30 BEGIN CTAB
M  V30 COUNTS 19 20 0 0 0
M  V30 BEGIN ATOM
M  V30 1 Cl 0.0 2.4999 0.0 0
M  V30 2 C 0.866 2.9999 0.0 0
M  V30 3 C 1.732 2.5 0.0 0
M  V30 4 C 0.866 3.9999 0.0 0
M  V30 5 N 1.732 1.4999 0.0 0
M  V30 6 C 2.598 3.0 0.0 0
M  V30 7 C 1.732 4.5 0.0 0
M  V30 8 C 2.598 1.0 0.0 0
M  V30 9 Cl 3.4641 2.5 0.0 0
M  V30 10 C 2.598 4.0 0.0 0
M  V30 11 C 2.598 0.0 0.0 0
M  V30 12 C 3.4641 1.4999 0.0 0
M  V30 13 C 3.4641 -0.5 0.0 0
M  V30 14 C 1.732 -0.5 0.0 0
M  V30 15 C 4.3301 1.0 0.0 0
M  V30 16 C 4.3301 0.0 0.0 0
M  V30 17 C 0.866 0.0 0.0 0
M  V30 18 O 0.866 1.0 0.0 0
M  V30 19 O 0.0 -0.5 0.0 0
M  V30 END ATOM
M  V30 BEGIN BOND
M  V30 1 1 1 2
M  V30 2 2 2 3
M  V30 3 1 2 4
M  V30 4 1 3 5
M  V30 5 1 3 6
M  V30 6 2 4 7
M  V30 7 1 5 8
M  V30 8 1 6 9
M  V30 9 2 6 10
M  V30 10 2 8 11
M  V30 11 1 8 12
M  V30 12 1 11 13
M  V30 13 1 11 14
M  V30 14 2 12 15
M  V30 15 2 13 16
M  V30 16 1 14 17
M  V30 17 2 17 18
M  V30 18 1 17 19
M  V30 19 1 7 10
M  V30 20 1 15 16
M  V30 END BOND
M  V30 END CTAB
M  END
>  <Drug Name>
Diclofenac

>  <Carbon Count>
14

>  <SMILES String>
OC(CC1=C(NC2=C(Cl)C=CC=C2Cl)C=CC=C1)=O

$$$$
Diphenhydramine
Actelion Java MolfileCreator 2.0

  0  0  0  0  0  0              0 V3000
M  V30 BEGIN CTAB
M  V30 COUNTS 19 20 0 0 0
M  V30 BEGIN ATOM
M  V30 1 O 3.4641 -0.5 0.0 0
M  V30 2 C 4.3301 0.0 0.0 0
M  V30 3 C 2.598 0.0 0.0 0
M  V30 4 C 5.1961 -0.5 0.0 0
M  V30 5 C 4.3301 1.0 0.0 0
M  V30 6 C 1.732 -0.5 0.0 0
M  V30 7 C 5.1961 -1.5 0.0 0
M  V30 8 C 6.0621 0.0 0.0 0
M  V30 9 C 5.1961 1.4999 0.0 0
M  V30 10 C 3.4641 1.5 0.0 0
M  V30 11 N 0.866 0.0 0.0 0
M  V30 12 C 6.0621 -2.0 0.0 0
M  V30 13 C 6.9282 -0.5 0.0 0
M  V30 14 C 5.1961 2.4999 0.0 0
M  V30 15 C 3.4641 2.5 0.0 0
M  V30 16 C 0.866 1.0 0.0 0
M  V30 17 C 0.0 -0.5 0.0 0
M  V30 18 C 6.9282 -1.5 0.0 0
M  V30 19 C 4.3301 2.9999 0.0 0
M  V30 END ATOM
M  V30 BEGIN BOND
M  V30 1 1 1 2
M  V30 2 1 1 3
M  V30 3 1 2 4
M  V30 4 1 2 5
M  V30 5 1 3 6
M  V30 6 2 4 7
M  V30 7 1 4 8
M  V30 8 2 5 9
M  V30 9 1 5 10
M  V30 10 1 6 11
M  V30 11 1 7 12
M  V30 12 2 8 13
M  V30 13 1 9 14
M  V30 14 2 10 15
M  V30 15 1 11 16
M  V30 16 1 11 17
M  V30 17 2 12 18
M  V30 18 2 14 19
M  V30 19 1 13 18
M  V30 20 1 15 19
M  V30 END BOND
M  V30 END CTAB
M  END
>  <Drug Name>
Diphenhydramine

>  <Carbon Count>
17

>  <SMILES String>
CN(CCOC(C1=CC=CC=C1)C2=CC=CC=C2)C

$$$$
Zidovudine
Actelion Java MolfileCreator 2.0

  0  0  0  0  0  0              0 V3000
M  V30 BEGIN CTAB
M  V30 COUNTS 19 20 0 0 0
M  V30 BEGIN ATOM
M  V30 1 O 4.1282 0.9906 0.0 0
M  V30 2 C 4.7159 0.1816 0.0 0
M  V30 3 N 4.3092 -0.7318 0.0 0
M  V30 4 N 5.7105 0.2861 0.0 0
M  V30 5 C 4.897 -1.5408 0.0 0
M  V30 6 C 3.3147 -0.8364 0.0 0 CFG=2
M  V30 7 C 6.2982 -0.5228 0.0 0
M  V30 8 C 5.8915 -1.4363 0.0 0
M  V30 9 O 2.6455 -0.0932 0.0 0
M  V30 10 C 2.8147 -1.7024 0.0 0
M  V30 11 O 7.2928 -0.4182 0.0 0
M  V30 12 C 6.4793 -2.2453 0.0 0
M  V30 13 C 1.732 -0.5 0.0 0 CFG=1
M  V30 14 C 1.8365 -1.4945 0.0 0 CFG=1
M  V30 15 C 0.866 0.0 0.0 0
M  V30 16 N 1.0934 -2.1636 0.0 0
M  V30 17 O 0.0 -0.5 0.0 0
M  V30 18 N 1.3013 -3.1418 0.0 0 CHG=1
M  V30 19 N 1.5092 -4.1199 0.0 0 CHG=-1
M  V30 END ATOM
M  V30 BEGIN BOND
M  V30 1 2 1 2
M  V30 2 1 2 3
M  V30 3 1 2 4
M  V30 4 1 3 5
M  V30 5 1 6 3 CFG=1
M  V30 6 1 4 7
M  V30 7 2 5 8
M  V30 8 1 6 9
M  V30 9 1 6 10
M  V30 10 2 7 11
M  V30 11 1 8 12
M  V30 12 1 9 13
M  V30 13 1 10 14
M  V30 14 1 13 15 CFG=1
M  V30 15 1 14 16 CFG=3
M  V30 16 1 15 17
M  V30 17 2 16 18
M  V30 18 2 18 19
M  V30 19 1 7 8
M  V30 20 1 13 14
M  V30 END BOND
M  V30 BEGIN COLLECTION
M  V30 MDLV30/STEABS ATOMS=(3 6 13 14)
M  V30 END COLLECTION
M  V30 END CTAB
M  END
>  <Drug Name>
Zidovudine

>  <Carbon Count>
10

>  <SMILES String>
CC1=CN(C(NC1=O)=O)[C@H]2C[C@@H]([C@H](O2)CO)N=[N+]=[N-]

$$$$
Zidovudine
Actelion Java MolfileCreator 2.0

  0  0  0  0  0  0              0 V3000
M  V30 BEGIN CTAB
M  V30 COUNTS 19 20 0 0 0
M  V30 BEGIN ATOM
M  V30 1 O 4.1282 0.9906 0.0 0
M  V30 2 C 4.7159 0.1816 0.0 0
M  V30 3 N 4.3092 -0.7318 0.0 0
M  V30 4 N 5.7105 0.2861 0.0 0
M  V30 5 C 4.897 -1.5408 0.0 0
M  V30 6 C 3.3147 -0.8364 0.0 0 CFG=2
M  V30 7 C 6.2982 -0.5228 0.0 0
M  V30 8 C 5.8915 -1.4363 0.0 0
M  V30 9 O 2.6455 -0.0932 0.0 0
M  V30 10 C 2.8147 -1.7024 0.0 0
M  V30 11 O 7.2928 -0.4182 0.0 0
M  V30 12 C 6.4793 -2.2453 0.0 0
M  V30 13 C 1.732 -0.5 0.0 0 CFG=1
M  V30 14 C 1.8365 -1.4945 0.0 0 CFG=1
M  V30 15 C 0.866 0.0 0.0 0
M  V30 16 N 1.0934 -2.1636 0.0 0
M  V30 17 O 0.0 -0.5 0.0 0
M  V30 18 N 1.3013 -3.1418 0.0 0 CHG=1
M  V30 19 N 1.5092 -4.1199 0.0 0 CHG=-1
M  V30 END ATOM
M  V30 BEGIN BOND
M  V30 1 2 1 2
M  V30 2 1 2 3
M  V30 3 1 2 4
M  V30 4 1 3 5
M  V30 5 1 6 3 CFG=1
M  V30 6 1 4 7
M  V30 7 2 5 8
M  V30 8 1 6 9
M  V30 9 1 6 10
M  V30 10 2 7 11
M  V30 11 1 8 12
M  V30 12 1 9 13
M  V30 13 1 10 14
M  V30 14 1 13 15 CFG=1
M  V30 15 1 14 16 CFG=3
M  V30 16 1 15 17
M  V30 17 2 16 18
M  V30 18 2 18 19
M  V30 19 1 7 8
M  V30 20 1 13 14
M  V30 END BOND
M  V30 BEGIN COLLECTION
M  V30 MDLV30/STEABS ATOMS=(3 6 13 14)
M  V30 END COLLECTION
M  V30 END CTAB
M  END
>  <Drug Name>
Zidovudine

>  <Carbon Count>
10

>  <SMILES String>
CC1=CN(C(NC1=O)=O)[C@H]2C[C@@H]([C@H](O2)CO)N=[N+]=[N-]

$$$$
Guanethidine Monosulfate
Actelion Java MolfileCreator 2.0

  0  0  0  0  0  0              0 V3000
M  V30 BEGIN CTAB
M  V30 COUNTS 19 18 0 0 0
M  V30 BEGIN ATOM
M  V30 1 S 4.2147 -0.9059 0.0 0
M  V30 2 O 3.4487 -1.5487 0.0 0
M  V30 3 O 5.1544 -1.248 0.0 0
M  V30 4 O 3.275 -0.5639 0.0 0
M  V30 5 O 4.0411 0.0788 0.0 0
M  V30 6 N 1.3663 -4.6389 0.0 0
M  V30 7 C 0.8663 -3.7729 0.0 0
M  V30 8 N 1.3663 -2.9069 0.0 0
M  V30 9 N -0.1336 -3.7729 0.0 0
M  V30 10 C 0.8663 -2.0409 0.0 0
M  V30 11 C 1.3663 -1.1748 0.0 0
M  V30 12 N 0.8663 -0.3088 0.0 0
M  V30 13 C -0.1251 -0.4393 0.0 0
M  V30 14 C 1.475 0.4845 0.0 0
M  V30 15 C -0.9184 0.1693 0.0 0
M  V30 16 C 1.3445 1.4759 0.0 0
M  V30 17 C -1.0489 1.1608 0.0 0
M  V30 18 C 0.5512 2.0847 0.0 0
M  V30 19 C -0.4402 1.9541 0.0 0
M  V30 END ATOM
M  V30 BEGIN BOND
M  V30 1 2 1 2
M  V30 2 2 1 3
M  V30 3 1 1 4
M  V30 4 1 1 5
M  V30 5 2 6 7
M  V30 6 1 7 8
M  V30 7 1 7 9
M  V30 8 1 8 10
M  V30 9 1 10 11
M  V30 10 1 11 12
M  V30 11 1 12 13
M  V30 12 1 12 14
M  V30 13 1 13 15
M  V30 14 1 14 16
M  V30 15 1 15 17
M  V30 16 1 16 18
M  V30 17 1 17 19
M  V30 18 1 18 19
M  V30 END BOND
M  V30 END CTAB
M  END
>  <Drug Name>
Guanethidine Monosulfate

>  <Carbon Count>
10

>  <SMILES String>
NC(NCCN1CCCCCCC1)=N.O=S(O)(O)=O

$$$$
Thalidomide
Actelion Java MolfileCreator 2.0

  0  0  0  0  0  0              0 V3000
M  V30 BEGIN CTAB
M  V30 COUNTS 19 21 0 0 0
M  V30 BEGIN ATOM
M  V30 1 O 1.732 -1.5 0.0 0
M  V30 2 C 1.732 -0.5 0.0 0
M  V30 3 N 2.598 0.0 0.0 0
M  V30 4 C 0.866 0.0 0.0 0 CFG=1
M  V30 5 C 2.598 0.9999 0.0 0
M  V30 6 N 0.0 -0.5 0.0 0
M  V30 7 C 0.866 1.0 0.0 0
M  V30 8 O 3.4641 1.4999 0.0 0
M  V30 9 C 1.732 1.4999 0.0 0
M  V30 10 C -0.9135 -0.0932 0.0 0
M  V30 11 C -0.1045 -1.4945 0.0 0
M  V30 12 O -1.1214 0.8848 0.0 0
M  V30 13 C -1.5826 -0.8364 0.0 0
M  V30 14 O 0.6386 -2.1636 0.0 0
M  V30 15 C -1.0826 -1.7024 0.0 0
M  V30 16 C -2.5826 -0.8364 0.0 0
M  V30 17 C -1.5826 -2.5684 0.0 0
M  V30 18 C -3.0826 -1.7024 0.0 0
M  V30 19 C -2.5826 -2.5684 0.0 0
M  V30 END ATOM
M  V30 BEGIN BOND
M  V30 1 2 1 2
M  V30 2 1 2 3
M  V30 3 1 2 4
M  V30 4 1 3 5
M  V30 5 1 4 6 CFG=1
M  V30 6 1 4 7
M  V30 7 2 5 8
M  V30 8 1 5 9
M  V30 9 1 6 10
M  V30 10 1 6 11
M  V30 11 2 10 12
M  V30 12 1 10 13
M  V30 13 2 11 14
M  V30 14 1 11 15
M  V30 15 1 13 16
M  V30 16 1 15 17
M  V30 17 2 16 18
M  V30 18 2 17 19
M  V30 19 1 7 9
M  V30 20 2 13 15
M  V30 21 1 18 19
M  V30 END BOND
M  V30 BEGIN COLLECTION
M  V30 MDLV30/STERAC1 ATOMS=(1 4)
M  V30 END COLLECTION
M  V30 END CTAB
M  END
>  <Drug Name>
Thalidomide

>  <Carbon Count>
13

>  <SMILES String>
O=C1N(C2CCC(NC2=O)=O)C(C3=CC=CC=C31)=O

$$$$
Ketorolac
Actelion Java MolfileCreator 2.0

  0  0  0  0  0  0              0 V3000
M  V30 BEGIN CTAB
M  V30 COUNTS 19 21 0 0 0
M  V30 BEGIN ATOM
M  V30 1 O 1.732 -0.5 0.0 0
M  V30 2 C 0.866 0.0 0.0 0
M  V30 3 C 0.866 1.0 0.0 0
M  V30 4 C 0.0 -0.5 0.0 0
M  V30 5 C 1.732 1.4999 0.0 0
M  V30 6 C 0.0 1.4999 0.0 0
M  V30 7 N -0.9135 -0.0932 0.0 0
M  V30 8 C -0.1045 -1.4945 0.0 0
M  V30 9 C 1.732 2.5 0.0 0
M  V30 10 C 0.0 2.5 0.0 0
M  V30 11 C -1.5826 -0.8364 0.0 0
M  V30 12 C -1.4135 0.7727 0.0 0
M  V30 13 C -1.0826 -1.7024 0.0 0
M  V30 14 C 0.866 3.0 0.0 0
M  V30 15 C -2.4962 -0.4296 0.0 0 CFG=1
M  V30 16 C -2.3916 0.5648 0.0 0
M  V30 17 C -3.3622 -0.9296 0.0 0
M  V30 18 O -4.2282 -0.4296 0.0 0
M  V30 19 O -3.3622 -1.9296 0.0 0
M  V30 END ATOM
M  V30 BEGIN BOND
M  V30 1 2 1 2
M  V30 2 1 2 3
M  V30 3 1 2 4
M  V30 4 2 3 5
M  V30 5 1 3 6
M  V30 6 1 4 7
M  V30 7 2 4 8
M  V30 8 1 5 9
M  V30 9 2 6 10
M  V30 10 1 7 11
M  V30 11 1 7 12
M  V30 12 1 8 13
M  V30 13 2 9 14
M  V30 14 1 11 15
M  V30 15 1 12 16
M  V30 16 1 15 17 CFG=3
M  V30 17 2 17 18
M  V30 18 1 17 19
M  V30 19 1 10 14
M  V30 20 2 11 13
M  V30 21 1 15 16
M  V30 END BOND
M  V30 BEGIN COLLECTION
M  V30 MDLV30/STERAC1 ATOMS=(1 15)
M  V30 END COLLECTION
M  V30 END CTAB
M  END
>  <Drug Name>
Ketorolac

>  <Carbon Count>
15

>  <SMILES String>
O=C(c1ccc2n1CCC2C(=O)O)c3ccccc3

$$$$
Triamterene
Actelion Java MolfileCreator 2.0

  0  0  0  0  0  0              0 V3000
M  V30 BEGIN CTAB
M  V30 COUNTS 19 21 0 0 0
M  V30 BEGIN ATOM
M  V30 1 N 0.866 1.0 0.0 0
M  V30 2 C 0.866 0.0 0.0 0
M  V30 3 C 1.732 1.4999 0.0 0
M  V30 4 N 1.732 -0.5 0.0 0
M  V30 5 N 0.0 -0.5 0.0 0
M  V30 6 N 1.732 2.4999 0.0 0
M  V30 7 C 2.598 0.9999 0.0 0
M  V30 8 C 2.598 0.0 0.0 0
M  V30 9 C 2.598 2.9999 0.0 0
M  V30 10 N 3.4641 1.4999 0.0 0
M  V30 11 N 3.4641 -0.5 0.0 0
M  V30 12 N 2.598 4.0 0.0 0
M  V30 13 C 3.4641 2.4999 0.0 0
M  V30 14 C 4.3301 2.9999 0.0 0
M  V30 15 C 5.1961 2.4999 0.0 0
M  V30 16 C 4.3301 3.9999 0.0 0
M  V30 17 C 6.0621 2.9999 0.0 0
M  V30 18 C 5.1961 4.4999 0.0 0
M  V30 19 C 6.0621 3.9999 0.0 0
M  V30 END ATOM
M  V30 BEGIN BOND
M  V30 1 2 1 2
M  V30 2 1 1 3
M  V30 3 1 2 4
M  V30 4 1 2 5
M  V30 5 2 3 6
M  V30 6 1 3 7
M  V30 7 2 4 8
M  V30 8 1 6 9
M  V30 9 2 7 10
M  V30 10 1 8 11
M  V30 11 1 9 12
M  V30 12 2 9 13
M  V30 13 1 13 14
M  V30 14 2 14 15
M  V30 15 1 14 16
M  V30 16 1 15 17
M  V30 17 2 16 18
M  V30 18 2 17 19
M  V30 19 1 7 8
M  V30 20 1 10 13
M  V30 21 1 18 19
M  V30 END BOND
M  V30 END CTAB
M  END
>  <Drug Name>
Triamterene

>  <Carbon Count>
12

>  <SMILES String>
NC1=C(N=C(C2=CC=CC=C2)C(N)=N3)C3=NC(N)=N1

$$$$
Tetracaine
Actelion Java MolfileCreator 2.0

  0  0  0  0  0  0              0 V3000
M  V30 BEGIN CTAB
M  V30 COUNTS 19 19 0 0 0
M  V30 BEGIN ATOM
M  V30 1 O 5.1961 -0.5 0.0 0
M  V30 2 C 4.3301 0.0 0.0 0
M  V30 3 O 3.4641 -0.5 0.0 0
M  V30 4 C 4.3301 1.0 0.0 0
M  V30 5 C 2.598 0.0 0.0 0
M  V30 6 C 5.1961 1.4999 0.0 0
M  V30 7 C 3.4641 1.5 0.0 0
M  V30 8 C 1.732 -0.5 0.0 0
M  V30 9 C 5.1961 2.4999 0.0 0
M  V30 10 C 3.4641 2.5 0.0 0
M  V30 11 N 0.866 0.0 0.0 0
M  V30 12 C 4.3301 3.0 0.0 0
M  V30 13 C 0.866 1.0 0.0 0
M  V30 14 C 0.0 -0.5 0.0 0
M  V30 15 N 4.3301 4.0 0.0 0
M  V30 16 C 5.1961 4.4999 0.0 0
M  V30 17 C 5.1961 5.4999 0.0 0
M  V30 18 C 6.0621 5.9999 0.0 0
M  V30 19 C 6.0621 6.9999 0.0 0
M  V30 END ATOM
M  V30 BEGIN BOND
M  V30 1 2 1 2
M  V30 2 1 2 3
M  V30 3 1 2 4
M  V30 4 1 3 5
M  V30 5 2 4 6
M  V30 6 1 4 7
M  V30 7 1 5 8
M  V30 8 1 6 9
M  V30 9 2 7 10
M  V30 10 1 8 11
M  V30 11 2 9 12
M  V30 12 1 11 13
M  V30 13 1 11 14
M  V30 14 1 12 15
M  V30 15 1 15 16
M  V30 16 1 16 17
M  V30 17 1 17 18
M  V30 18 1 18 19
M  V30 19 1 10 12
M  V30 END BOND
M  V30 END CTAB
M  END
>  <Drug Name>
Tetracaine

>  <Carbon Count>
15

>  <SMILES String>
CCCCNC1=CC=C(C(OCCN(C)C)=O)C=C1

$$$$
Melphalan
Actelion Java MolfileCreator 2.0

  0  0  0  0  0  0              0 V3000
M  V30 BEGIN CTAB
M  V30 COUNTS 19 19 0 0 0
M  V30 BEGIN ATOM
M  V30 1 Cl 7.7942 -0.75 0.0 0
M  V30 2 C 6.4951 0.0 0.0 0
M  V30 3 C 5.1961 -0.75 0.0 0
M  V30 4 N 3.8971 0.0 0.0 0
M  V30 5 C 3.8971 1.5 0.0 0
M  V30 6 C 2.598 -0.75 0.0 0
M  V30 7 C 5.1961 2.25 0.0 0
M  V30 8 C 2.598 2.25 0.0 0
M  V30 9 C 1.299 0.0 0.0 0
M  V30 10 C 5.1961 3.75 0.0 0
M  V30 11 C 2.598 3.75 0.0 0
M  V30 12 Cl 0.0 -0.75 0.0 0
M  V30 13 C 3.8971 4.5 0.0 0
M  V30 14 C 3.8971 6.0 0.0 0
M  V30 15 C 2.598 6.75 0.0 0 CFG=2
M  V30 16 N 1.299 6.0 0.0 0
M  V30 17 C 2.598 8.25 0.0 0
M  V30 18 O 3.8971 9.0 0.0 0
M  V30 19 O 1.299 9.0 0.0 0
M  V30 END ATOM
M  V30 BEGIN BOND
M  V30 1 1 1 2
M  V30 2 1 2 3
M  V30 3 1 3 4
M  V30 4 1 4 5
M  V30 5 1 4 6
M  V30 6 2 5 7
M  V30 7 1 5 8
M  V30 8 1 6 9
M  V30 9 1 7 10
M  V30 10 2 8 11
M  V30 11 1 9 12
M  V30 12 2 10 13
M  V30 13 1 13 14
M  V30 14 1 14 15
M  V30 15 1 15 16 CFG=3
M  V30 16 1 15 17
M  V30 17 2 17 18
M  V30 18 1 17 19
M  V30 19 1 11 13
M  V30 END BOND
M  V30 BEGIN COLLECTION
M  V30 MDLV30/STEABS ATOMS=(1 15)
M  V30 END COLLECTION
M  V30 END CTAB
M  END
>  <Drug Name>
Melphalan

>  <Carbon Count>
13

>  <SMILES String>
OC([C@@H](N)CC1=CC=C(N(CCCl)CCCl)C=C1)=O

$$$$
Atenolol
Actelion Java MolfileCreator 2.0

  0  0  0  0  0  0              0 V3000
M  V30 BEGIN CTAB
M  V30 COUNTS 19 19 0 0 0
M  V30 BEGIN ATOM
M  V30 1 O 10.3923 1.4999 0.0 0
M  V30 2 C 9.5262 0.9999 0.0 0
M  V30 3 N 9.5262 0.0 0.0 0
M  V30 4 C 8.6602 1.4999 0.0 0
M  V30 5 C 7.7942 0.9999 0.0 0
M  V30 6 C 6.9282 1.4999 0.0 0
M  V30 7 C 7.7942 0.0 0.0 0
M  V30 8 C 6.0621 0.9999 0.0 0
M  V30 9 C 6.9282 -0.5 0.0 0
M  V30 10 C 6.0621 0.0 0.0 0
M  V30 11 O 5.1961 -0.5 0.0 0
M  V30 12 C 4.3301 0.0 0.0 0
M  V30 13 C 3.4641 -0.5 0.0 0 CFG=1
M  V30 14 O 3.4641 -1.5 0.0 0
M  V30 15 C 2.598 0.0 0.0 0
M  V30 16 N 1.732 -0.5 0.0 0
M  V30 17 C 0.866 0.0 0.0 0
M  V30 18 C 0.866 1.0 0.0 0
M  V30 19 C 0.0 -0.5 0.0 0
M  V30 END ATOM
M  V30 BEGIN BOND
M  V30 1 2 1 2
M  V30 2 1 2 3
M  V30 3 1 2 4
M  V30 4 1 4 5
M  V30 5 2 5 6
M  V30 6 1 5 7
M  V30 7 1 6 8
M  V30 8 2 7 9
M  V30 9 2 8 10
M  V30 10 1 10 11
M  V30 11 1 11 12
M  V30 12 1 12 13
M  V30 13 1 13 14 CFG=1
M  V30 14 1 13 15
M  V30 15 1 15 16
M  V30 16 1 16 17
M  V30 17 1 17 18
M  V30 18 1 17 19
M  V30 19 1 9 10
M  V30 END BOND
M  V30 BEGIN COLLECTION
M  V30 MDLV30/STERAC1 ATOMS=(1 13)
M  V30 END COLLECTION
M  V30 END CTAB
M  END
>  <Drug Name>
Atenolol

>  <Carbon Count>
14

>  <SMILES String>
O=C(CC1=CC=C(OCC(CNC(C)C)O)C=C1)N

$$$$
Articaine
Actelion Java MolfileCreator 2.0

  0  0  0  0  0  0              0 V3000
M  V30 BEGIN CTAB
M  V30 COUNTS 19 19 0 0 0
M  V30 BEGIN ATOM
M  V30 1 S 7.1448 1.2024 0.0 0
M  V30 2 C 6.1667 0.9945 0.0 0
M  V30 3 C 7.6448 0.3364 0.0 0
M  V30 4 C 6.0621 0.0 0.0 0
M  V30 5 C 5.4235 1.6636 0.0 0
M  V30 6 C 6.9757 -0.4067 0.0 0
M  V30 7 N 5.1961 -0.5 0.0 0
M  V30 8 O 4.4725 1.3546 0.0 0
M  V30 9 O 5.6314 2.6418 0.0 0
M  V30 10 C 7.1836 -1.3848 0.0 0
M  V30 11 C 5.1961 -1.4999 0.0 0
M  V30 12 C 4.8883 3.3109 0.0 0
M  V30 13 O 6.0621 -1.9999 0.0 0
M  V30 14 C 4.3301 -1.9999 0.0 0 CFG=1
M  V30 15 N 4.3301 -2.9999 0.0 0
M  V30 16 C 3.4641 -1.4999 0.0 0
M  V30 17 C 3.4641 -3.4999 0.0 0
M  V30 18 C 3.4641 -4.4999 0.0 0
M  V30 19 C 2.598 -4.9999 0.0 0
M  V30 END ATOM
M  V30 BEGIN BOND
M  V30 1 1 1 2
M  V30 2 1 1 3
M  V30 3 2 2 4
M  V30 4 1 2 5
M  V30 5 2 3 6
M  V30 6 1 4 7
M  V30 7 2 5 8
M  V30 8 1 5 9
M  V30 9 1 6 10
M  V30 10 2 7 11 CFG=2
M  V30 11 1 9 12
M  V30 12 1 11 13
M  V30 13 1 11 14
M  V30 14 1 14 15
M  V30 15 1 14 16 CFG=1
M  V30 16 1 15 17
M  V30 17 1 17 18
M  V30 18 1 18 19
M  V30 19 1 4 6
M  V30 END BOND
M  V30 BEGIN COLLECTION
M  V30 MDLV30/STERAC1 ATOMS=(1 14)
M  V30 END COLLECTION
M  V30 END CTAB
M  END
>  <Drug Name>
Articaine

>  <Carbon Count>
13

>  <SMILES String>
CC1=CSC(C(OC)=O)=C1NC(C(C)NCCC)=O

$$$$
Probenecid
Actelion Java MolfileCreator 2.0

  0  0  0  0  0  0              0 V3000
M  V30 BEGIN CTAB
M  V30 COUNTS 19 19 0 0 0
M  V30 BEGIN ATOM
M  V30 1 S 3.8971 1.5 0.0 0
M  V30 2 O 5.397 1.4999 0.0 0
M  V30 3 O 4.647 2.799 0.0 0
M  V30 4 N 3.8971 0.0 0.0 0
M  V30 5 C 2.598 2.25 0.0 0
M  V30 6 C 5.1961 -0.75 0.0 0
M  V30 7 C 2.598 -0.75 0.0 0
M  V30 8 C 2.598 3.75 0.0 0
M  V30 9 C 1.299 1.5 0.0 0
M  V30 10 C 6.4952 0.0 0.0 0
M  V30 11 C 1.299 0.0 0.0 0
M  V30 12 C 1.299 4.5 0.0 0
M  V30 13 C 0.0 2.25 0.0 0
M  V30 14 C 7.7942 -0.75 0.0 0
M  V30 15 C 0.0 -0.75 0.0 0
M  V30 16 C 0.0 3.75 0.0 0
M  V30 17 C -1.299 4.5 0.0 0
M  V30 18 O -1.299 6.0 0.0 0
M  V30 19 O -2.598 3.75 0.0 0
M  V30 END ATOM
M  V30 BEGIN BOND
M  V30 1 2 1 2
M  V30 2 2 1 3
M  V30 3 1 1 4
M  V30 4 1 1 5
M  V30 5 1 4 6
M  V30 6 1 4 7
M  V30 7 2 5 8
M  V30 8 1 5 9
M  V30 9 1 6 10
M  V30 10 1 7 11
M  V30 11 1 8 12
M  V30 12 2 9 13
M  V30 13 1 10 14
M  V30 14 1 11 15
M  V30 15 2 12 16
M  V30 16 1 16 17
M  V30 17 2 17 18
M  V30 18 1 17 19
M  V30 19 1 13 16
M  V30 END BOND
M  V30 END CTAB
M  END
>  <Drug Name>
Probenecid

>  <Carbon Count>
13

>  <SMILES String>
OC(C1=CC=C(S(N(CCC)CCC)(=O)=O)C=C1)=O

$$$$
Metoprolol
Actelion Java MolfileCreator 2.0

  0  0  0  0  0  0              0 V3000
M  V30 BEGIN CTAB
M  V30 COUNTS 19 19 0 0 0
M  V30 BEGIN ATOM
M  V30 1 O 5.1961 -0.5 0.0 0
M  V30 2 C 6.0621 0.0 0.0 0
M  V30 3 C 4.3301 0.0 0.0 0
M  V30 4 C 6.9282 -0.5 0.0 0
M  V30 5 C 6.0621 0.9999 0.0 0
M  V30 6 C 3.4641 -0.5 0.0 0 CFG=1
M  V30 7 C 7.7942 0.0 0.0 0
M  V30 8 C 6.9282 1.4999 0.0 0
M  V30 9 O 3.4641 -1.5 0.0 0
M  V30 10 C 2.598 0.0 0.0 0
M  V30 11 C 7.7942 0.9999 0.0 0
M  V30 12 N 1.732 -0.5 0.0 0
M  V30 13 C 8.6602 1.4999 0.0 0
M  V30 14 C 0.866 0.0 0.0 0
M  V30 15 C 8.6602 2.4999 0.0 0
M  V30 16 C 0.866 1.0 0.0 0
M  V30 17 C 0.0 -0.5 0.0 0
M  V30 18 O 9.5262 2.9999 0.0 0
M  V30 19 C 9.5262 3.9999 0.0 0
M  V30 END ATOM
M  V30 BEGIN BOND
M  V30 1 1 1 2
M  V30 2 1 1 3
M  V30 3 2 2 4
M  V30 4 1 2 5
M  V30 5 1 3 6
M  V30 6 1 4 7
M  V30 7 2 5 8
M  V30 8 1 6 9 CFG=1
M  V30 9 1 6 10
M  V30 10 2 7 11
M  V30 11 1 10 12
M  V30 12 1 11 13
M  V30 13 1 12 14
M  V30 14 1 13 15
M  V30 15 1 14 16
M  V30 16 1 14 17
M  V30 17 1 15 18
M  V30 18 1 18 19
M  V30 19 1 8 11
M  V30 END BOND
M  V30 BEGIN COLLECTION
M  V30 MDLV30/STERAC1 ATOMS=(1 6)
M  V30 END COLLECTION
M  V30 END CTAB
M  END
>  <Drug Name>
Metoprolol

>  <Carbon Count>
15

>  <SMILES String>
COCCC1=CC=C(C=C1)OCC(CNC(C)C)O

$$$$
Etidocaine
Actelion Java MolfileCreator 2.0

  0  0  0  0  0  0              0 V3000
M  V30 BEGIN CTAB
M  V30 COUNTS 20 20 0 0 0
M  V30 BEGIN ATOM
M  V30 1 O 4.3301 0.9999 0.0 0
M  V30 2 C 4.3301 0.0 0.0 0
M  V30 3 N 5.1961 -0.5 0.0 0
M  V30 4 C 3.4641 -0.5 0.0 0 CFG=1
M  V30 5 C 6.0621 0.0 0.0 0
M  V30 6 N 2.598 0.0 0.0 0
M  V30 7 C 3.4641 -1.5 0.0 0
M  V30 8 C 6.9282 -0.5 0.0 0
M  V30 9 C 6.0621 0.9999 0.0 0
M  V30 10 C 1.732 -0.5 0.0 0
M  V30 11 C 2.598 1.0 0.0 0
M  V30 12 C 4.3301 -2.0 0.0 0
M  V30 13 C 7.7942 0.0 0.0 0
M  V30 14 C 6.9282 -1.5 0.0 0
M  V30 15 C 6.9282 1.4999 0.0 0
M  V30 16 C 5.1961 1.5 0.0 0
M  V30 17 C 0.866 0.0 0.0 0
M  V30 18 C 1.732 1.5 0.0 0
M  V30 19 C 7.7942 0.9999 0.0 0
M  V30 20 C 0.0 -0.5 0.0 0
M  V30 END ATOM
M  V30 BEGIN BOND
M  V30 1 1 1 2
M  V30 2 2 2 3 CFG=2
M  V30 3 1 2 4
M  V30 4 1 3 5
M  V30 5 1 4 6 CFG=3
M  V30 6 1 4 7
M  V30 7 2 5 8
M  V30 8 1 5 9
M  V30 9 1 6 10
M  V30 10 1 6 11
M  V30 11 1 7 12
M  V30 12 1 8 13
M  V30 13 1 8 14
M  V30 14 2 9 15
M  V30 15 1 9 16
M  V30 16 1 10 17
M  V30 17 1 11 18
M  V30 18 2 13 19
M  V30 19 1 17 20
M  V30 20 1 15 19
M  V30 END BOND
M  V30 BEGIN COLLECTION
M  V30 MDLV30/STERAC1 ATOMS=(1 4)
M  V30 END COLLECTION
M  V30 END CTAB
M  END
>  <Drug Name>
Etidocaine

>  <Carbon Count>
17

>  <SMILES String>
CCCN(C(C(NC1=C(C)C=CC=C1C)=O)CC)CC

$$$$
Chloramphenicol
Actelion Java MolfileCreator 2.0

  0  0  0  0  0  0              0 V3000
M  V30 BEGIN CTAB
M  V30 COUNTS 20 20 0 0 0
M  V30 BEGIN ATOM
M  V30 1 Cl -1.732 -0.5 0.0 0
M  V30 2 C -0.866 0.0 0.0 0
M  V30 3 Cl -0.866 0.9999 0.0 0
M  V30 4 C 0.0 -0.5 0.0 0
M  V30 5 O 0.0 -1.5 0.0 0
M  V30 6 N 0.866 0.0 0.0 0
M  V30 7 C 1.732 -0.5 0.0 0 CFG=1
M  V30 8 C 1.732 -1.5 0.0 0 CFG=2
M  V30 9 C 2.598 0.0 0.0 0
M  V30 10 O 0.866 -2.0 0.0 0
M  V30 11 C 2.598 -1.9999 0.0 0
M  V30 12 O 3.4641 -0.4999 0.0 0
M  V30 13 C 2.598 -3.0 0.0 0
M  V30 14 C 3.4641 -1.5 0.0 0
M  V30 15 C 3.4641 -3.5 0.0 0
M  V30 16 C 4.3301 -2.0 0.0 0
M  V30 17 C 4.3301 -3.0 0.0 0
M  V30 18 N 5.1961 -3.5 0.0 0 CHG=1
M  V30 19 O 5.1961 -4.5 0.0 0
M  V30 20 O 6.0621 -3.0 0.0 0 CHG=-1
M  V30 END ATOM
M  V30 BEGIN BOND
M  V30 1 1 1 2
M  V30 2 1 2 3
M  V30 3 1 2 4
M  V30 4 2 4 5
M  V30 5 1 4 6
M  V30 6 1 7 6 CFG=3
M  V30 7 1 7 8
M  V30 8 1 7 9
M  V30 9 1 8 10 CFG=1
M  V30 10 1 8 11
M  V30 11 1 9 12
M  V30 12 2 11 13
M  V30 13 1 11 14
M  V30 14 1 13 15
M  V30 15 2 14 16
M  V30 16 2 15 17
M  V30 17 1 17 18
M  V30 18 2 18 19
M  V30 19 1 18 20
M  V30 20 1 16 17
M  V30 END BOND
M  V30 BEGIN COLLECTION
M  V30 MDLV30/STEABS ATOMS=(2 7 8)
M  V30 END COLLECTION
M  V30 END CTAB
M  END
>  <Drug Name>
Chloramphenicol

>  <Carbon Count>
11

>  <SMILES String>
OC[C@H]([C@H](O)C1=CC=C(C=C1)[N+]([O-])=O)NC(C(Cl)Cl)=O

$$$$
Famotidine
Actelion Java MolfileCreator 2.0

  0  0  0  0  0  0              0 V3000
M  V30 BEGIN CTAB
M  V30 COUNTS 20 20 0 0 0
M  V30 BEGIN ATOM
M  V30 1 S 6.0621 0.0 0.0 0
M  V30 2 O 6.5621 -0.866 0.0 0
M  V30 3 O 5.5621 0.866 0.0 0
M  V30 4 N 5.1961 -0.5 0.0 0
M  V30 5 N 6.9282 0.4999 0.0 0
M  V30 6 C 4.3301 0.0 0.0 0
M  V30 7 N 4.3301 1.0 0.0 0
M  V30 8 C 3.4641 -0.5 0.0 0
M  V30 9 C 2.598 0.0 0.0 0
M  V30 10 S 1.732 -0.5 0.0 0
M  V30 11 C 0.866 0.0 0.0 0
M  V30 12 C 0.0 -0.5 0.0 0
M  V30 13 N -0.9135 -0.0932 0.0 0
M  V30 14 C -0.1045 -1.4945 0.0 0
M  V30 15 C -1.5826 -0.8364 0.0 0
M  V30 16 S -1.0826 -1.7024 0.0 0
M  V30 17 N -2.5771 -0.7318 0.0 0
M  V30 18 C -2.9839 0.1816 0.0 0
M  V30 19 N -2.3961 0.9906 0.0 0
M  V30 20 N -3.9784 0.2861 0.0 0
M  V30 END ATOM
M  V30 BEGIN BOND
M  V30 1 2 1 2
M  V30 2 2 1 3
M  V30 3 1 1 4
M  V30 4 1 1 5
M  V30 5 2 4 6 CFG=2
M  V30 6 1 6 7
M  V30 7 1 6 8
M  V30 8 1 8 9
M  V30 9 1 9 10
M  V30 10 1 10 11
M  V30 11 1 11 12
M  V30 12 1 12 13
M  V30 13 2 12 14
M  V30 14 2 13 15
M  V30 15 1 14 16
M  V30 16 1 15 17
M  V30 17 2 17 18
M  V30 18 1 18 19
M  V30 19 1 18 20
M  V30 20 1 15 16
M  V30 END BOND
M  V30 END CTAB
M  END
>  <Drug Name>
Famotidine

>  <Carbon Count>
8

>  <SMILES String>
N/C(CCSCC1=CSC(/N=C(N)\N)=N1)=N\S(=O)(N)=O

$$$$
Tazobactam
Actelion Java MolfileCreator 2.0

  0  0  0  0  0  0              0 V3000
M  V30 BEGIN CTAB
M  V30 COUNTS 20 22 0 0 0
M  V30 BEGIN ATOM
M  V30 1 S 4.9721 -1.2546 0.0 0
M  V30 2 O 6.3423 -1.8647 0.0 0
M  V30 3 O 6.1855 -0.3729 0.0 0
M  V30 4 C 3.9684 -0.1398 0.0 0 CFG=2
M  V30 5 C 4.222 -2.5536 0.0 0 CFG=1
M  V30 6 C 2.598 -0.75 0.0 0 CFG=1
M  V30 7 C 4.2802 1.3273 0.0 0
M  V30 8 C 5.4172 0.2483 0.0 0
M  V30 9 N 2.7548 -2.2417 0.0 0
M  V30 10 C 3.9102 -4.0208 0.0 0
M  V30 11 C 1.299 0.0 0.0 0
M  V30 12 N 5.7068 1.7908 0.0 0
M  V30 13 C 2.443 -3.709 0.0 0
M  V30 14 O 1.299 1.5 0.0 0
M  V30 15 O 0.0 -0.75 0.0 0
M  V30 16 N 6.9203 0.9091 0.0 0
M  V30 17 C 6.1703 3.2174 0.0 0
M  V30 18 O 1.1849 -4.5259 0.0 0
M  V30 19 N 8.1339 1.7908 0.0 0
M  V30 20 C 7.6703 3.2174 0.0 0
M  V30 END ATOM
M  V30 BEGIN BOND
M  V30 1 2 1 2
M  V30 2 2 1 3
M  V30 3 1 1 4
M  V30 4 1 5 1 CFG=3
M  V30 5 1 4 6
M  V30 6 1 4 7
M  V30 7 1 4 8 CFG=1
M  V30 8 1 5 9
M  V30 9 1 5 10
M  V30 10 1 6 11 CFG=1
M  V30 11 1 7 12
M  V30 12 1 9 13
M  V30 13 2 11 14
M  V30 14 1 11 15
M  V30 15 1 12 16
M  V30 16 1 12 17
M  V30 17 2 13 18
M  V30 18 2 16 19
M  V30 19 2 17 20
M  V30 20 1 6 9
M  V30 21 1 10 13
M  V30 22 1 19 20
M  V30 END BOND
M  V30 BEGIN COLLECTION
M  V30 MDLV30/STEABS ATOMS=(3 4 5 6)
M  V30 END COLLECTION
M  V30 END CTAB
M  END
>  <Drug Name>
Tazobactam

>  <Carbon Count>
10

>  <SMILES String>
O=C1C[C@]2([H])N1[C@@H](C(O)=O)[C@@](CN3C=CN=N3)(C)S2(=O)=O

$$$$
Promethazine
Actelion Java MolfileCreator 2.0

  0  0  0  0  0  0              0 V3000
M  V30 BEGIN CTAB
M  V30 COUNTS 20 22 0 0 0
M  V30 BEGIN ATOM
M  V30 1 S 7.7942 -2.2499 0.0 0
M  V30 2 C 7.7942 -0.75 0.0 0
M  V30 3 C 6.4951 -2.9999 0.0 0
M  V30 4 C 6.4951 0.0 0.0 0
M  V30 5 C 9.0932 0.0 0.0 0
M  V30 6 C 5.1961 -2.25 0.0 0
M  V30 7 C 6.4951 -4.5 0.0 0
M  V30 8 N 5.1961 -0.75 0.0 0
M  V30 9 C 6.4951 1.5 0.0 0
M  V30 10 C 9.0932 1.5 0.0 0
M  V30 11 C 3.8971 -3.0 0.0 0
M  V30 12 C 5.1961 -5.25 0.0 0
M  V30 13 C 3.8971 0.0 0.0 0
M  V30 14 C 7.7942 2.25 0.0 0
M  V30 15 C 3.8971 -4.5 0.0 0
M  V30 16 C 2.598 -0.75 0.0 0 CFG=1
M  V30 17 N 1.299 0.0 0.0 0
M  V30 18 C 2.598 -2.25 0.0 0
M  V30 19 C 1.299 1.5 0.0 0
M  V30 20 C 0.0 -0.75 0.0 0
M  V30 END ATOM
M  V30 BEGIN BOND
M  V30 1 1 1 2
M  V30 2 1 1 3
M  V30 3 2 2 4
M  V30 4 1 2 5
M  V30 5 2 3 6
M  V30 6 1 3 7
M  V30 7 1 4 8
M  V30 8 1 4 9
M  V30 9 2 5 10
M  V30 10 1 6 11
M  V30 11 2 7 12
M  V30 12 1 8 13
M  V30 13 2 9 14
M  V30 14 2 11 15
M  V30 15 1 13 16
M  V30 16 1 16 17
M  V30 17 1 16 18 CFG=3
M  V30 18 1 17 19
M  V30 19 1 17 20
M  V30 20 1 6 8
M  V30 21 1 10 14
M  V30 22 1 12 15
M  V30 END BOND
M  V30 BEGIN COLLECTION
M  V30 MDLV30/STERAC1 ATOMS=(1 16)
M  V30 END COLLECTION
M  V30 END CTAB
M  END
>  <Drug Name>
Promethazine

>  <Carbon Count>
17

>  <SMILES String>
CC(CN1C2=C(SC3=C1C=CC=C3)C=CC=C2)N(C)C

$$$$
Homatropine
Actelion Java MolfileCreator 2.0

  0  0  0  0  0  0              0 V3000
M  V30 BEGIN CTAB
M  V30 COUNTS 20 22 0 0 0
M  V30 BEGIN ATOM
M  V30 1 O 1.732 -1.5 0.0 0
M  V30 2 C 1.732 -0.5 0.0 0
M  V30 3 O 2.598 0.0 0.0 0
M  V30 4 C 0.866 0.0 0.0 0
M  V30 5 C 3.4155 -0.4719 0.0 0 CFG=2
M  V30 6 O 0.866 1.0 0.0 0
M  V30 7 C 0.0 -0.5 0.0 0
M  V30 8 C 4.3301 0.0 0.0 0
M  V30 9 C 3.4641 -1.4999 0.0 0
M  V30 10 C -0.866 0.0 0.0 0
M  V30 11 C 0.0 -1.4999 0.0 0
M  V30 12 C 5.4816 -0.7306 0.0 0 CFG=1
M  V30 13 C 4.6726 -2.1319 0.0 0 CFG=2
M  V30 14 C -1.732 -0.4999 0.0 0
M  V30 15 C -0.866 -1.9999 0.0 0
M  V30 16 N 4.5681 -1.1374 0.0 0
M  V30 17 C 6.1507 -1.4738 0.0 0
M  V30 18 C 5.6507 -2.3398 0.0 0
M  V30 19 C -1.732 -1.4999 0.0 0
M  V30 20 C 3.8 -0.6939 0.0 0
M  V30 END ATOM
M  V30 BEGIN BOND
M  V30 1 2 1 2
M  V30 2 1 2 3
M  V30 3 1 2 4
M  V30 4 1 5 3 CFG=3
M  V30 5 1 4 6
M  V30 6 1 4 7
M  V30 7 1 5 8
M  V30 8 1 5 9
M  V30 9 2 7 10
M  V30 10 1 7 11
M  V30 11 1 8 12
M  V30 12 1 9 13
M  V30 13 1 10 14
M  V30 14 2 11 15
M  V30 15 1 12 16 CFG=1
M  V30 16 1 12 17
M  V30 17 1 13 18
M  V30 18 2 14 19
M  V30 19 1 16 20
M  V30 20 1 13 16 CFG=1
M  V30 21 1 15 19
M  V30 22 1 17 18
M  V30 END BOND
M  V30 BEGIN COLLECTION
M  V30 MDLV30/STEABS ATOMS=(3 5 12 13)
M  V30 END COLLECTION
M  V30 END CTAB
M  END
>  <Drug Name>
Homatropine

>  <Carbon Count>
16

>  <SMILES String>
CN1C2CCC1CC(C2)OC(C(C3=CC=CC=C3)O)=O

$$$$
Antazoline
Actelion Java MolfileCreator 2.0

  0  0  0  0  0  0              0 V3000
M  V30 BEGIN CTAB
M  V30 COUNTS 20 22 0 0 0
M  V30 BEGIN ATOM
M  V30 1 N 4.3776 -0.0932 0.0 0
M  V30 2 C 3.4641 -0.5 0.0 0
M  V30 3 C 5.0467 -0.8364 0.0 0
M  V30 4 N 3.5686 -1.4945 0.0 0
M  V30 5 C 2.598 0.0 0.0 0
M  V30 6 C 4.5467 -1.7024 0.0 0
M  V30 7 N 1.732 -0.5 0.0 0
M  V30 8 C 1.732 -1.5 0.0 0
M  V30 9 C 0.866 0.0 0.0 0
M  V30 10 C 0.866 -1.9999 0.0 0
M  V30 11 C 2.598 -2.0 0.0 0
M  V30 12 C 0.0 -0.5 0.0 0
M  V30 13 C 0.866 -2.9999 0.0 0
M  V30 14 C 2.598 -3.0 0.0 0
M  V30 15 C -0.866 0.0 0.0 0
M  V30 16 C 0.0 -1.4999 0.0 0
M  V30 17 C 1.732 -3.5 0.0 0
M  V30 18 C -1.732 -0.4999 0.0 0
M  V30 19 C -0.866 -1.9999 0.0 0
M  V30 20 C -1.732 -1.4999 0.0 0
M  V30 END ATOM
M  V30 BEGIN BOND
M  V30 1 2 1 2
M  V30 2 1 1 3
M  V30 3 1 2 4
M  V30 4 1 2 5
M  V30 5 1 3 6
M  V30 6 1 5 7
M  V30 7 1 7 8
M  V30 8 1 7 9
M  V30 9 2 8 10
M  V30 10 1 8 11
M  V30 11 1 9 12
M  V30 12 1 10 13
M  V30 13 2 11 14
M  V30 14 2 12 15
M  V30 15 1 12 16
M  V30 16 2 13 17
M  V30 17 1 15 18
M  V30 18 2 16 19
M  V30 19 2 18 20
M  V30 20 1 4 6
M  V30 21 1 14 17
M  V30 22 1 19 20
M  V30 END BOND
M  V30 END CTAB
M  END
>  <Drug Name>
Antazoline

>  <Carbon Count>
17

>  <SMILES String>
C1(CN(C2=CC=CC=C2)CC3=CC=CC=C3)=NCCN1

$$$$
Pomalidomide
Actelion Java MolfileCreator 2.0

  0  0  0  0  0  0              0 V3000
M  V30 BEGIN CTAB
M  V30 COUNTS 20 22 0 0 0
M  V30 BEGIN ATOM
M  V30 1 O 1.732 -1.5 0.0 0
M  V30 2 C 1.732 -0.5 0.0 0
M  V30 3 N 2.598 0.0 0.0 0
M  V30 4 C 0.866 0.0 0.0 0 CFG=1
M  V30 5 C 2.598 0.9999 0.0 0
M  V30 6 N 0.0 -0.5 0.0 0
M  V30 7 C 0.866 1.0 0.0 0
M  V30 8 O 3.4641 1.4999 0.0 0
M  V30 9 C 1.732 1.4999 0.0 0
M  V30 10 C -0.9135 -0.0932 0.0 0
M  V30 11 C -0.1045 -1.4945 0.0 0
M  V30 12 O -1.1214 0.8848 0.0 0
M  V30 13 C -1.5826 -0.8364 0.0 0
M  V30 14 O 0.6386 -2.1636 0.0 0
M  V30 15 C -1.0826 -1.7024 0.0 0
M  V30 16 C -2.5826 -0.8364 0.0 0
M  V30 17 C -1.5826 -2.5684 0.0 0
M  V30 18 N -3.0826 0.0296 0.0 0
M  V30 19 C -3.0826 -1.7024 0.0 0
M  V30 20 C -2.5826 -2.5684 0.0 0
M  V30 END ATOM
M  V30 BEGIN BOND
M  V30 1 2 1 2
M  V30 2 1 2 3
M  V30 3 1 2 4
M  V30 4 1 3 5
M  V30 5 1 4 6 CFG=1
M  V30 6 1 4 7
M  V30 7 2 5 8
M  V30 8 1 5 9
M  V30 9 1 6 10
M  V30 10 1 6 11
M  V30 11 2 10 12
M  V30 12 1 10 13
M  V30 13 2 11 14
M  V30 14 1 11 15
M  V30 15 1 13 16
M  V30 16 1 15 17
M  V30 17 1 16 18
M  V30 18 2 16 19
M  V30 19 2 17 20
M  V30 20 1 7 9
M  V30 21 2 13 15
M  V30 22 1 19 20
M  V30 END BOND
M  V30 BEGIN COLLECTION
M  V30 MDLV30/STERAC1 ATOMS=(1 4)
M  V30 END COLLECTION
M  V30 END CTAB
M  END
>  <Drug Name>
Pomalidomide

>  <Carbon Count>
13

>  <SMILES String>
O=C1N(C2CCC(NC2=O)=O)C(C3=C(N)C=CC=C31)=O

$$$$
Fludarabine
Actelion Java MolfileCreator 2.0

  0  0  0  0  0  0              0 V3000
M  V30 BEGIN CTAB
M  V30 COUNTS 20 22 0 0 0
M  V30 BEGIN ATOM
M  V30 1 F 5.5783 -4.0518 0.0 0
M  V30 2 C 5.6828 -3.0573 0.0 0
M  V30 3 N 6.5964 -2.6505 0.0 0
M  V30 4 N 4.8738 -2.4695 0.0 0
M  V30 5 C 6.7009 -1.656 0.0 0
M  V30 6 C 4.9783 -1.475 0.0 0
M  V30 7 N 7.6144 -1.2493 0.0 0
M  V30 8 C 5.8919 -1.0682 0.0 0
M  V30 9 N 4.3092 -0.7318 0.0 0
M  V30 10 N 5.7873 -0.0737 0.0 0
M  V30 11 C 4.8092 0.1341 0.0 0
M  V30 12 C 3.3147 -0.8364 0.0 0 CFG=1
M  V30 13 O 2.6455 -0.0932 0.0 0
M  V30 14 C 2.8147 -1.7024 0.0 0 CFG=2
M  V30 15 C 1.732 -0.5 0.0 0 CFG=2
M  V30 16 O 3.2214 -2.6159 0.0 0
M  V30 17 C 1.8365 -1.4945 0.0 0 CFG=2
M  V30 18 C 0.866 0.0 0.0 0
M  V30 19 O 1.0934 -2.1636 0.0 0
M  V30 20 O 0.0 -0.5 0.0 0
M  V30 END ATOM
M  V30 BEGIN BOND
M  V30 1 1 1 2
M  V30 2 2 2 3
M  V30 3 1 2 4
M  V30 4 1 3 5
M  V30 5 2 4 6
M  V30 6 1 5 7
M  V30 7 2 5 8
M  V30 8 1 6 9
M  V30 9 1 8 10
M  V30 10 1 9 11
M  V30 11 1 12 9 CFG=3
M  V30 12 1 12 13
M  V30 13 1 12 14
M  V30 14 1 13 15
M  V30 15 1 14 16 CFG=3
M  V30 16 1 14 17
M  V30 17 1 15 18 CFG=3
M  V30 18 1 17 19 CFG=1
M  V30 19 1 18 20
M  V30 20 1 6 8
M  V30 21 2 10 11
M  V30 22 1 15 17
M  V30 END BOND
M  V30 BEGIN COLLECTION
M  V30 MDLV30/STERAC1 ATOMS=(4 12 14 15 17)
M  V30 END COLLECTION
M  V30 END CTAB
M  END
>  <Drug Name>
Fludarabine

>  <Carbon Count>
12

>  <SMILES String>
OC[C@@H](O1)[C@@H](O)[C@H](O)[C@@H]1N2C3=CC(F)=CC(N)=C3N=C2

$$$$
Trifluridine
Actelion Java MolfileCreator 2.0

  0  0  0  0  0  0              0 V3000
M  V30 BEGIN CTAB
M  V30 COUNTS 20 21 0 0 0
M  V30 BEGIN ATOM
M  V30 1 F 7.2883 -1.6575 0.0 0
M  V30 2 C 6.4793 -2.2453 0.0 0
M  V30 3 F 7.0671 -3.0544 0.0 0
M  V30 4 F 5.6703 -2.8331 0.0 0
M  V30 5 C 5.8915 -1.4363 0.0 0
M  V30 6 C 6.2982 -0.5228 0.0 0
M  V30 7 C 4.897 -1.5408 0.0 0
M  V30 8 O 7.2928 -0.4182 0.0 0
M  V30 9 N 5.7105 0.2861 0.0 0
M  V30 10 N 4.3092 -0.7318 0.0 0
M  V30 11 C 4.7159 0.1816 0.0 0
M  V30 12 C 3.3147 -0.8364 0.0 0 CFG=2
M  V30 13 O 4.1282 0.9906 0.0 0
M  V30 14 O 2.6455 -0.0932 0.0 0
M  V30 15 C 2.8147 -1.7024 0.0 0
M  V30 16 C 1.732 -0.5 0.0 0 CFG=1
M  V30 17 C 1.8365 -1.4945 0.0 0 CFG=1
M  V30 18 C 0.866 0.0 0.0 0
M  V30 19 O 1.0934 -2.1636 0.0 0
M  V30 20 O 0.0 -0.5 0.0 0
M  V30 END ATOM
M  V30 BEGIN BOND
M  V30 1 1 1 2
M  V30 2 1 2 3
M  V30 3 1 2 4
M  V30 4 1 2 5
M  V30 5 1 5 6
M  V30 6 2 5 7
M  V30 7 2 6 8
M  V30 8 1 6 9
M  V30 9 1 7 10
M  V30 10 1 9 11
M  V30 11 1 12 10 CFG=1
M  V30 12 2 11 13
M  V30 13 1 12 14
M  V30 14 1 12 15
M  V30 15 1 14 16
M  V30 16 1 15 17
M  V30 17 1 16 18 CFG=1
M  V30 18 1 17 19 CFG=3
M  V30 19 1 18 20
M  V30 20 1 10 11
M  V30 21 1 16 17
M  V30 END BOND
M  V30 BEGIN COLLECTION
M  V30 MDLV30/STEABS ATOMS=(3 12 16 17)
M  V30 END COLLECTION
M  V30 END CTAB
M  END
>  <Drug Name>
Trifluridine

>  <Carbon Count>
10

>  <SMILES String>
O[C@H]1C[C@H](N(C=C2C(F)(F)F)C(NC2=O)=O)O[C@@H]1CO

$$$$
Trifluridine
Actelion Java MolfileCreator 2.0

  0  0  0  0  0  0              0 V3000
M  V30 BEGIN CTAB
M  V30 COUNTS 20 21 0 0 0
M  V30 BEGIN ATOM
M  V30 1 F 7.2883 -1.6575 0.0 0
M  V30 2 C 6.4793 -2.2453 0.0 0
M  V30 3 F 7.0671 -3.0544 0.0 0
M  V30 4 F 5.6703 -2.8331 0.0 0
M  V30 5 C 5.8915 -1.4363 0.0 0
M  V30 6 C 6.2982 -0.5228 0.0 0
M  V30 7 C 4.897 -1.5408 0.0 0
M  V30 8 O 7.2928 -0.4182 0.0 0
M  V30 9 N 5.7105 0.2861 0.0 0
M  V30 10 N 4.3092 -0.7318 0.0 0
M  V30 11 C 4.7159 0.1816 0.0 0
M  V30 12 C 3.3147 -0.8364 0.0 0 CFG=2
M  V30 13 O 4.1282 0.9906 0.0 0
M  V30 14 O 2.6455 -0.0932 0.0 0
M  V30 15 C 2.8147 -1.7024 0.0 0
M  V30 16 C 1.732 -0.5 0.0 0 CFG=1
M  V30 17 C 1.8365 -1.4945 0.0 0 CFG=1
M  V30 18 C 0.866 0.0 0.0 0
M  V30 19 O 1.0934 -2.1636 0.0 0
M  V30 20 O 0.0 -0.5 0.0 0
M  V30 END ATOM
M  V30 BEGIN BOND
M  V30 1 1 1 2
M  V30 2 1 2 3
M  V30 3 1 2 4
M  V30 4 1 2 5
M  V30 5 1 5 6
M  V30 6 2 5 7
M  V30 7 2 6 8
M  V30 8 1 6 9
M  V30 9 1 7 10
M  V30 10 1 9 11
M  V30 11 1 12 10 CFG=1
M  V30 12 2 11 13
M  V30 13 1 12 14
M  V30 14 1 12 15
M  V30 15 1 14 16
M  V30 16 1 15 17
M  V30 17 1 16 18 CFG=1
M  V30 18 1 17 19 CFG=3
M  V30 19 1 18 20
M  V30 20 1 10 11
M  V30 21 1 16 17
M  V30 END BOND
M  V30 BEGIN COLLECTION
M  V30 MDLV30/STEABS ATOMS=(3 12 16 17)
M  V30 END COLLECTION
M  V30 END CTAB
M  END
>  <Drug Name>
Trifluridine

>  <Carbon Count>
10

>  <SMILES String>
O=C1C(C(F)(F)F)=CN([C@@H]2O[C@H](CO)[C@@H](O)C2)C(N1)=O

$$$$
Orphenadrine
Actelion Java MolfileCreator 2.0

  0  0  0  0  0  0              0 V3000
M  V30 BEGIN CTAB
M  V30 COUNTS 20 21 0 0 0
M  V30 BEGIN ATOM
M  V30 1 O 3.4641 -0.5 0.0 0
M  V30 2 C 4.3301 0.0 0.0 0 CFG=2
M  V30 3 C 2.598 0.0 0.0 0
M  V30 4 C 5.1961 -0.5 0.0 0
M  V30 5 C 4.3301 1.0 0.0 0
M  V30 6 C 1.732 -0.5 0.0 0
M  V30 7 C 5.1961 -1.5 0.0 0
M  V30 8 C 6.0621 0.0 0.0 0
M  V30 9 C 5.1961 1.4999 0.0 0
M  V30 10 C 3.4641 1.5 0.0 0
M  V30 11 N 0.866 0.0 0.0 0
M  V30 12 C 6.0621 -2.0 0.0 0
M  V30 13 C 4.3301 -1.9999 0.0 0
M  V30 14 C 6.9282 -0.5 0.0 0
M  V30 15 C 5.1961 2.4999 0.0 0
M  V30 16 C 3.4641 2.5 0.0 0
M  V30 17 C 0.866 1.0 0.0 0
M  V30 18 C 0.0 -0.5 0.0 0
M  V30 19 C 6.9282 -1.5 0.0 0
M  V30 20 C 4.3301 2.9999 0.0 0
M  V30 END ATOM
M  V30 BEGIN BOND
M  V30 1 1 2 1 CFG=1
M  V30 2 1 1 3
M  V30 3 1 2 4
M  V30 4 1 2 5
M  V30 5 1 3 6
M  V30 6 2 4 7
M  V30 7 1 4 8
M  V30 8 2 5 9
M  V30 9 1 5 10
M  V30 10 1 6 11
M  V30 11 1 7 12
M  V30 12 1 7 13
M  V30 13 2 8 14
M  V30 14 1 9 15
M  V30 15 2 10 16
M  V30 16 1 11 17
M  V30 17 1 11 18
M  V30 18 2 12 19
M  V30 19 2 15 20
M  V30 20 1 14 19
M  V30 21 1 16 20
M  V30 END BOND
M  V30 BEGIN COLLECTION
M  V30 MDLV30/STERAC1 ATOMS=(1 2)
M  V30 END COLLECTION
M  V30 END CTAB
M  END
>  <Drug Name>
Orphenadrine

>  <Carbon Count>
18

>  <SMILES String>
CN(CCOC(C1=CC=CC=C1C)C2=CC=CC=C2)C

$$$$
Bromodiphenhydramine
Actelion Java MolfileCreator 2.0

  0  0  0  0  0  0              0 V3000
M  V30 BEGIN CTAB
M  V30 COUNTS 20 21 0 0 0
M  V30 BEGIN ATOM
M  V30 1 Br 7.7942 -2.0 0.0 0
M  V30 2 C 6.9282 -1.5 0.0 0
M  V30 3 C 6.9282 -0.5 0.0 0
M  V30 4 C 6.0621 -2.0 0.0 0
M  V30 5 C 6.0621 0.0 0.0 0
M  V30 6 C 5.1961 -1.5 0.0 0
M  V30 7 C 5.1961 -0.5 0.0 0
M  V30 8 C 4.3301 0.0 0.0 0 CFG=1
M  V30 9 O 3.4641 -0.5 0.0 0
M  V30 10 C 4.3301 1.0 0.0 0
M  V30 11 C 2.598 0.0 0.0 0
M  V30 12 C 5.1961 1.4999 0.0 0
M  V30 13 C 3.4641 1.5 0.0 0
M  V30 14 C 1.732 -0.5 0.0 0
M  V30 15 C 5.1961 2.4999 0.0 0
M  V30 16 C 3.4641 2.5 0.0 0
M  V30 17 N 0.866 0.0 0.0 0
M  V30 18 C 4.3301 2.9999 0.0 0
M  V30 19 C 0.866 1.0 0.0 0
M  V30 20 C 0.0 -0.5 0.0 0
M  V30 END ATOM
M  V30 BEGIN BOND
M  V30 1 1 1 2
M  V30 2 2 2 3
M  V30 3 1 2 4
M  V30 4 1 3 5
M  V30 5 2 4 6
M  V30 6 2 5 7
M  V30 7 1 7 8
M  V30 8 1 8 9 CFG=1
M  V30 9 1 8 10
M  V30 10 1 9 11
M  V30 11 2 10 12
M  V30 12 1 10 13
M  V30 13 1 11 14
M  V30 14 1 12 15
M  V30 15 2 13 16
M  V30 16 1 14 17
M  V30 17 2 15 18
M  V30 18 1 17 19
M  V30 19 1 17 20
M  V30 20 1 6 7
M  V30 21 1 16 18
M  V30 END BOND
M  V30 BEGIN COLLECTION
M  V30 MDLV30/STERAC1 ATOMS=(1 8)
M  V30 END COLLECTION
M  V30 END CTAB
M  END
>  <Drug Name>
Bromodiphenhydramine

>  <Carbon Count>
17

>  <SMILES String>
Brc1ccc(cc1)C(OCCN(C)C)c2ccccc2

$$$$
Vaborbactam
Actelion Java MolfileCreator 2.0

  0  0  0  0  0  0              0 V3000
M  V30 BEGIN CTAB
M  V30 COUNTS 20 21 0 0 0
M  V30 BEGIN ATOM
M  V30 1 S 4.3776 -0.0932 0.0 0
M  V30 2 C 3.4641 -0.5 0.0 0
M  V30 3 C 5.0467 -0.8364 0.0 0
M  V30 4 C 3.5686 -1.4945 0.0 0
M  V30 5 C 2.598 0.0 0.0 0
M  V30 6 C 4.5467 -1.7024 0.0 0
M  V30 7 C 1.732 -0.5 0.0 0
M  V30 8 O 1.732 -1.5 0.0 0
M  V30 9 N 0.866 0.0 0.0 0
M  V30 10 C 0.0 -0.5 0.0 0 CFG=2
M  V30 11 C -0.866 0.0 0.0 0
M  V30 12 B 0.0 -1.4999 0.0 0
M  V30 13 C -1.732 -0.4999 0.0 0
M  V30 14 O -0.866 -1.9999 0.0 0
M  V30 15 O 0.866 -2.0 0.0 0
M  V30 16 C -1.732 -1.4999 0.0 0 CFG=1
M  V30 17 C -2.598 -1.9999 0.0 0
M  V30 18 C -3.4641 -1.4999 0.0 0
M  V30 19 O -3.4641 -0.4999 0.0 0
M  V30 20 O -4.3301 -1.9999 0.0 0
M  V30 END ATOM
M  V30 BEGIN BOND
M  V30 1 1 1 2
M  V30 2 1 1 3
M  V30 3 2 2 4
M  V30 4 1 2 5
M  V30 5 2 3 6
M  V30 6 1 5 7
M  V30 7 2 7 8
M  V30 8 1 7 9
M  V30 9 1 10 9 CFG=1
M  V30 10 1 10 11
M  V30 11 1 10 12
M  V30 12 1 11 13
M  V30 13 1 12 14
M  V30 14 1 12 15
M  V30 15 1 13 16
M  V30 16 1 16 17 CFG=1
M  V30 17 1 17 18
M  V30 18 2 18 19
M  V30 19 1 18 20
M  V30 20 1 4 6
M  V30 21 1 14 16
M  V30 END BOND
M  V30 BEGIN COLLECTION
M  V30 MDLV30/STERAC1 ATOMS=(2 10 16)
M  V30 END COLLECTION
M  V30 END CTAB
M  END
>  <Drug Name>
Vaborbactam

>  <Carbon Count>
12

>  <SMILES String>
B1([C@H](CC[C@H](O1)CC(=O)O)NC(=O)CC2=CC=CS2)O

$$$$
Methyclothiazide
Actelion Java MolfileCreator 2.0

  0  0  0  0  0  0              0 V3000
M  V30 BEGIN CTAB
M  V30 COUNTS 20 21 0 0 0
M  V30 BEGIN ATOM
M  V30 1 Cl 5.1961 -6.75 0.0 0
M  V30 2 C 5.1961 -5.25 0.0 0
M  V30 3 C 6.4952 -4.5 0.0 0
M  V30 4 C 3.8971 -4.5 0.0 0
M  V30 5 S 7.7942 -5.25 0.0 0
M  V30 6 C 6.4952 -3.0 0.0 0
M  V30 7 C 3.8971 -3.0 0.0 0
M  V30 8 O 7.0442 -6.549 0.0 0
M  V30 9 O 8.5442 -3.9509 0.0 0
M  V30 10 N 9.0932 -6.0 0.0 0
M  V30 11 C 5.1961 -2.25 0.0 0
M  V30 12 N 2.598 -2.25 0.0 0
M  V30 13 S 5.1961 -0.75 0.0 0
M  V30 14 C 2.598 -0.75 0.0 0 CFG=1
M  V30 15 O 6.6961 -0.75 0.0 0
M  V30 16 O 5.9461 0.549 0.0 0
M  V30 17 N 3.8971 0.0 0.0 0
M  V30 18 C 1.299 0.0 0.0 0
M  V30 19 C 3.8971 1.5 0.0 0
M  V30 20 Cl 0.0 -0.75 0.0 0
M  V30 END ATOM
M  V30 BEGIN BOND
M  V30 1 1 1 2
M  V30 2 2 2 3
M  V30 3 1 2 4
M  V30 4 1 3 5
M  V30 5 1 3 6
M  V30 6 2 4 7
M  V30 7 2 5 8
M  V30 8 2 5 9
M  V30 9 1 5 10
M  V30 10 2 6 11
M  V30 11 1 7 12
M  V30 12 1 11 13
M  V30 13 1 12 14
M  V30 14 2 13 15
M  V30 15 2 13 16
M  V30 16 1 13 17
M  V30 17 1 14 18 CFG=3
M  V30 18 1 17 19
M  V30 19 1 18 20
M  V30 20 1 7 11
M  V30 21 1 14 17
M  V30 END BOND
M  V30 BEGIN COLLECTION
M  V30 MDLV30/STERAC1 ATOMS=(1 14)
M  V30 END COLLECTION
M  V30 END CTAB
M  END
>  <Drug Name>
Methyclothiazide

>  <Carbon Count>
9

>  <SMILES String>
O=S1(C(C=C(S(N)(=O)=O)C(Cl)=C2)=C2NC(CCl)N1C)=O

$$$$
Sumatriptan
Actelion Java MolfileCreator 2.0

  0  0  0  0  0  0              0 V3000
M  V30 BEGIN CTAB
M  V30 COUNTS 20 21 0 0 0
M  V30 BEGIN ATOM
M  V30 1 S 2.3418 -5.5859 0.0 0
M  V30 2 O 2.6537 -4.1187 0.0 0
M  V30 3 O 1.2271 -4.5822 0.0 0
M  V30 4 N 1.3381 -6.7006 0.0 0
M  V30 5 C 3.809 -5.8978 0.0 0
M  V30 6 C -0.129 -6.3887 0.0 0
M  V30 7 C 4.8127 -4.783 0.0 0
M  V30 8 C 4.3492 -3.3565 0.0 0
M  V30 9 C 6.28 -5.0949 0.0 0
M  V30 10 C 5.3529 -2.2417 0.0 0
M  V30 11 C 7.2837 -3.9802 0.0 0
M  V30 12 C 6.8201 -2.5536 0.0 0
M  V30 13 C 5.1961 -0.75 0.0 0
M  V30 14 N 7.5701 -1.2546 0.0 0
M  V30 15 C 6.5664 -0.1398 0.0 0
M  V30 16 C 3.8971 0.0 0.0 0
M  V30 17 C 2.598 -0.75 0.0 0
M  V30 18 N 1.299 0.0 0.0 0
M  V30 19 C 1.299 1.5 0.0 0
M  V30 20 C 0.0 -0.75 0.0 0
M  V30 END ATOM
M  V30 BEGIN BOND
M  V30 1 2 1 2
M  V30 2 2 1 3
M  V30 3 1 1 4
M  V30 4 1 1 5
M  V30 5 1 4 6
M  V30 6 1 5 7
M  V30 7 2 7 8
M  V30 8 1 7 9
M  V30 9 1 8 10
M  V30 10 2 9 11
M  V30 11 2 10 12
M  V30 12 1 10 13
M  V30 13 1 12 14
M  V30 14 2 13 15
M  V30 15 1 13 16
M  V30 16 1 16 17
M  V30 17 1 17 18
M  V30 18 1 18 19
M  V30 19 1 18 20
M  V30 20 1 11 12
M  V30 21 1 14 15
M  V30 END BOND
M  V30 END CTAB
M  END
>  <Drug Name>
Sumatriptan

>  <Carbon Count>
14

>  <SMILES String>
O=S(CC1=CC2=C(NC=C2CCN(C)C)C=C1)(NC)=O

$$$$
Estradiol
Actelion Java MolfileCreator 2.0

  0  0  0  0  0  0              0 V3000
M  V30 BEGIN CTAB
M  V30 COUNTS 20 23 0 0 0
M  V30 BEGIN ATOM
M  V30 1 O 1.4931 5.9671 0.0 0
M  V30 2 C 1.3886 4.9726 0.0 0
M  V30 3 C 2.1976 4.3848 0.0 0
M  V30 4 C 0.4751 4.5658 0.0 0
M  V30 5 C 2.0931 3.3903 0.0 0
M  V30 6 C 0.3705 3.5713 0.0 0
M  V30 7 C 1.1796 2.9835 0.0 0
M  V30 8 C 2.9021 2.8025 0.0 0
M  V30 9 C 1.075 1.989 0.0 0 CFG=2
M  V30 10 C 2.7976 1.8079 0.0 0
M  V30 11 C 1.884 1.4012 0.0 0 CFG=1
M  V30 12 C 0.1615 1.5823 0.0 0
M  V30 13 C 1.7795 0.4067 0.0 0 CFG=1
M  V30 14 C 0.057 0.5877 0.0 0
M  V30 15 C 0.866 0.0 0.0 0 CFG=2
M  V30 16 C 2.4487 -0.3364 0.0 0
M  V30 17 C 0.9705 -0.9945 0.0 0 CFG=2
M  V30 18 C 0.0 -0.5 0.0 0
M  V30 19 C 1.9487 -1.2024 0.0 0
M  V30 20 O 0.2274 -1.6636 0.0 0
M  V30 END ATOM
M  V30 BEGIN BOND
M  V30 1 1 1 2
M  V30 2 2 2 3
M  V30 3 1 2 4
M  V30 4 1 3 5
M  V30 5 2 4 6
M  V30 6 2 5 7
M  V30 7 1 5 8
M  V30 8 1 7 9
M  V30 9 1 8 10
M  V30 10 1 9 11
M  V30 11 1 9 12 CFG=3
M  V30 12 1 11 13
M  V30 13 1 12 14
M  V30 14 1 13 15
M  V30 15 1 13 16 CFG=3
M  V30 16 1 15 17
M  V30 17 1 15 18 CFG=3
M  V30 18 1 16 19
M  V30 19 1 17 20 CFG=3
M  V30 20 1 6 7
M  V30 21 1 11 10 CFG=1
M  V30 22 1 14 15
M  V30 23 1 17 19
M  V30 END BOND
M  V30 BEGIN COLLECTION
M  V30 MDLV30/STEABS ATOMS=(5 9 11 13 15 17)
M  V30 END COLLECTION
M  V30 END CTAB
M  END
>  <Drug Name>
Estradiol

>  <Carbon Count>
18

>  <SMILES String>
OC(C=C1)=CC2=C1[C@@]3([H])CC[C@]4(C)[C@@H](O)CC[C@@]4([H])[C@]3([H])CC2

$$$$
Nevirapine
Actelion Java MolfileCreator 2.0

  0  0  0  0  0  0              0 V3000
M  V30 BEGIN CTAB
M  V30 COUNTS 20 23 0 0 0
M  V30 BEGIN ATOM
M  V30 1 O -1.3484 2.4699 0.0 0
M  V30 2 C -0.3596 2.3209 0.0 0
M  V30 3 N -0.0648 1.3653 0.0 0
M  V30 4 C 0.2037 3.1471 0.0 0
M  V30 5 C 0.866 0.9999 0.0 0
M  V30 6 C 1.2009 3.2218 0.0 0
M  V30 7 C -0.3596 3.9733 0.0 0
M  V30 8 C 1.732 1.4999 0.0 0
M  V30 9 C 0.866 0.0 0.0 0
M  V30 10 N 1.6348 4.1228 0.0 0
M  V30 11 N 1.881 2.4888 0.0 0
M  V30 12 C 0.0742 4.8743 0.0 0
M  V30 13 N 2.598 0.9999 0.0 0
M  V30 14 C 1.732 -0.5 0.0 0
M  V30 15 C 0.0 -0.5 0.0 0
M  V30 16 C 1.0714 4.949 0.0 0
M  V30 17 C 2.8366 2.7835 0.0 0
M  V30 18 C 2.598 0.0 0.0 0
M  V30 19 C 3.8115 2.561 0.0 0
M  V30 20 C 3.5168 3.5166 0.0 0
M  V30 END ATOM
M  V30 BEGIN BOND
M  V30 1 2 1 2
M  V30 2 1 2 3
M  V30 3 1 2 4
M  V30 4 1 3 5
M  V30 5 2 4 6
M  V30 6 1 4 7
M  V30 7 2 5 8
M  V30 8 1 5 9
M  V30 9 1 6 10
M  V30 10 1 6 11
M  V30 11 2 7 12
M  V30 12 1 8 13
M  V30 13 2 9 14
M  V30 14 1 9 15
M  V30 15 2 10 16
M  V30 16 1 11 17
M  V30 17 2 13 18
M  V30 18 1 17 19
M  V30 19 1 17 20
M  V30 20 1 8 11
M  V30 21 1 12 16
M  V30 22 1 14 18
M  V30 23 1 19 20
M  V30 END BOND
M  V30 END CTAB
M  END
>  <Drug Name>
Nevirapine

>  <Carbon Count>
15

>  <SMILES String>
CC1=C2NC(C3=C(N(C2=NC=C1)C4CC4)N=CC=C3)=O

$$$$
Dextromethorphan
Actelion Java MolfileCreator 2.0

  0  0  0  0  0  0              0 V3000
M  V30 BEGIN CTAB
M  V30 COUNTS 20 23 0 0 0
M  V30 BEGIN ATOM
M  V30 1 O 0.866 0.0 0.0 0
M  V30 2 C 1.732 -0.5 0.0 0
M  V30 3 C 0.0 -0.5 0.0 0
M  V30 4 C 1.732 -1.5 0.0 0
M  V30 5 C 2.598 0.0 0.0 0
M  V30 6 C 2.598 -2.0 0.0 0
M  V30 7 C 3.4641 -0.5 0.0 0
M  V30 8 C 3.4641 -1.5 0.0 0
M  V30 9 C 2.598 -3.0 0.0 0 CFG=2
M  V30 10 C 4.3301 -2.0 0.0 0
M  V30 11 C 3.4641 -3.5 0.0 0 CFG=1
M  V30 12 C 2.598 -4.3333 0.0 0
M  V30 13 C 1.732 -3.4999 0.0 0
M  V30 14 C 4.3301 -3.0 0.0 0 CFG=1
M  V30 15 C 3.4641 -4.4084 0.0 0
M  V30 16 C 3.4851 -4.8829 0.0 0
M  V30 17 C 1.732 -4.4999 0.0 0
M  V30 18 N 4.3301 -4.3333 0.0 0
M  V30 19 C 2.598 -5.0 0.0 0
M  V30 20 C 5.1961 -4.8333 0.0 0
M  V30 END ATOM
M  V30 BEGIN BOND
M  V30 1 1 1 2
M  V30 2 1 1 3
M  V30 3 2 2 4
M  V30 4 1 2 5
M  V30 5 1 4 6
M  V30 6 2 5 7
M  V30 7 2 6 8
M  V30 8 1 6 9
M  V30 9 1 8 10
M  V30 10 1 9 11
M  V30 11 1 9 12 CFG=3
M  V30 12 1 9 13
M  V30 13 1 10 14
M  V30 14 1 11 15 CFG=1
M  V30 15 1 12 16
M  V30 16 1 13 17
M  V30 17 1 14 18 CFG=3
M  V30 18 1 15 19
M  V30 19 1 18 20
M  V30 20 1 7 8
M  V30 21 1 11 14
M  V30 22 1 16 18
M  V30 23 1 17 19
M  V30 END BOND
M  V30 BEGIN COLLECTION
M  V30 MDLV30/STEABS ATOMS=(3 9 11 14)
M  V30 END COLLECTION
M  V30 END CTAB
M  END
>  <Drug Name>
Dextromethorphan

>  <Carbon Count>
18

>  <SMILES String>
CN1CC[C@@]23CCCC[C@@H]2[C@@H]1Cc4c3cc(cc4)OC

$$$$
Abacavir
Actelion Java MolfileCreator 2.0

  0  0  0  0  0  0              0 V3000
M  V30 BEGIN CTAB
M  V30 COUNTS 21 24 0 0 0
M  V30 BEGIN ATOM
M  V30 1 O 2.598 -0.75 0.0 0
M  V30 2 C 1.299 0.0 0.0 0
M  V30 3 C 0.0 -0.75 0.0 0 CFG=2
M  V30 4 C -1.3703 -0.1398 0.0 0
M  V30 5 C -0.1567 -2.2417 0.0 0
M  V30 6 C -2.374 -1.2546 0.0 0
M  V30 7 C -1.624 -2.5536 0.0 0 CFG=2
M  V30 8 N -2.2341 -3.9239 0.0 0
M  V30 9 C -3.7013 -4.2358 0.0 0
M  V30 10 C -1.4841 -5.223 0.0 0
M  V30 11 N -4.9148 -3.3541 0.0 0
M  V30 12 C -3.8581 -5.7276 0.0 0
M  V30 13 N -2.4878 -6.3377 0.0 0
M  V30 14 C -6.2851 -3.9642 0.0 0
M  V30 15 C -5.2284 -6.3377 0.0 0
M  V30 16 N -6.4419 -5.456 0.0 0
M  V30 17 N -7.4987 -3.0825 0.0 0
M  V30 18 N -5.3852 -7.8295 0.0 0
M  V30 19 C -4.1717 -8.7111 0.0 0
M  V30 20 C -3.5616 -10.0815 0.0 0
M  V30 21 C -2.6799 -8.8679 0.0 0
M  V30 END ATOM
M  V30 BEGIN BOND
M  V30 1 1 1 2
M  V30 2 1 3 2 CFG=1
M  V30 3 1 3 4
M  V30 4 1 3 5
M  V30 5 2 4 6
M  V30 6 1 5 7
M  V30 7 1 7 8 CFG=1
M  V30 8 1 8 9
M  V30 9 1 8 10
M  V30 10 2 9 11
M  V30 11 1 9 12
M  V30 12 2 10 13
M  V30 13 1 11 14
M  V30 14 2 12 15
M  V30 15 2 14 16
M  V30 16 1 14 17
M  V30 17 1 15 18
M  V30 18 1 18 19
M  V30 19 1 19 20
M  V30 20 1 19 21
M  V30 21 1 6 7
M  V30 22 1 12 13
M  V30 23 1 15 16
M  V30 24 1 20 21
M  V30 END BOND
M  V30 BEGIN COLLECTION
M  V30 MDLV30/STEABS ATOMS=(2 3 7)
M  V30 END COLLECTION
M  V30 END CTAB
M  END
>  <Drug Name>
Abacavir

>  <Carbon Count>
14

>  <SMILES String>
NC1=NC2=C(N=CN2[C@H]3C=C[C@@H](CO)C3)C(NC4CC4)=N1

$$$$
Mersalyl
Actelion Java MolfileCreator 2.0

  0  0  0  0  0  0              0 V3000
M  V30 BEGIN CTAB
M  V30 COUNTS 21 21 0 0 0
M  V30 BEGIN ATOM
M  V30 1 Hg 5.1961 -0.5 0.0 0
M  V30 2 O 6.0621 0.0 0.0 0
M  V30 3 C 4.3301 0.0 0.0 0
M  V30 4 C 3.4641 -0.5 0.0 0 CFG=1
M  V30 5 O 3.4641 -1.5 0.0 0
M  V30 6 C 2.598 0.0 0.0 0
M  V30 7 C 4.3301 -2.0 0.0 0
M  V30 8 N 1.732 -0.5 0.0 0
M  V30 9 C 0.866 0.0 0.0 0
M  V30 10 O 0.866 1.0 0.0 0
M  V30 11 C 0.0 -0.5 0.0 0
M  V30 12 C -0.866 0.0 0.0 0
M  V30 13 C 0.0 -1.4999 0.0 0
M  V30 14 O -0.866 1.0 0.0 0
M  V30 15 C -1.732 -0.4999 0.0 0
M  V30 16 C -0.866 -1.9999 0.0 0
M  V30 17 C -1.732 1.5 0.0 0
M  V30 18 C -1.732 -1.4999 0.0 0
M  V30 19 C -1.732 2.5 0.0 0
M  V30 20 O -0.866 3.0 0.0 0
M  V30 21 O -2.598 3.0 0.0 0
M  V30 END ATOM
M  V30 BEGIN BOND
M  V30 1 1 1 2
M  V30 2 1 1 3
M  V30 3 1 3 4
M  V30 4 1 4 5 CFG=1
M  V30 5 1 4 6
M  V30 6 1 5 7
M  V30 7 1 6 8
M  V30 8 1 8 9
M  V30 9 2 9 10
M  V30 10 1 9 11
M  V30 11 2 11 12
M  V30 12 1 11 13
M  V30 13 1 12 14
M  V30 14 1 12 15
M  V30 15 2 13 16
M  V30 16 1 14 17
M  V30 17 2 15 18
M  V30 18 1 17 19
M  V30 19 2 19 20
M  V30 20 1 19 21
M  V30 21 1 16 18
M  V30 END BOND
M  V30 BEGIN COLLECTION
M  V30 MDLV30/STERAC1 ATOMS=(1 4)
M  V30 END COLLECTION
M  V30 END CTAB
M  END
>  <Drug Name>
Mersalyl

>  <Carbon Count>
13

>  <SMILES String>
COC(C[Hg+])CNC(C1=CC=CC=C1OCC(O)=O)=O.[OH-]

$$$$
Trimethoprim
Actelion Java MolfileCreator 2.0

  0  0  0  0  0  0              0 V3000
M  V30 BEGIN CTAB
M  V30 COUNTS 21 22 0 0 0
M  V30 BEGIN ATOM
M  V30 1 O 0.866 0.0 0.0 0
M  V30 2 C 1.732 -0.5 0.0 0
M  V30 3 C 0.0 -0.5 0.0 0
M  V30 4 C 1.732 -1.5 0.0 0
M  V30 5 C 2.598 0.0 0.0 0
M  V30 6 O 0.866 -1.9999 0.0 0
M  V30 7 C 2.598 -2.0 0.0 0
M  V30 8 O 2.598 0.9999 0.0 0
M  V30 9 C 3.4641 -0.5 0.0 0
M  V30 10 C 0.866 -2.9999 0.0 0
M  V30 11 C 3.4641 -1.5 0.0 0
M  V30 12 C 1.732 1.5 0.0 0
M  V30 13 C 4.3301 -2.0 0.0 0
M  V30 14 C 5.1961 -1.5 0.0 0
M  V30 15 C 6.0621 -2.0 0.0 0
M  V30 16 C 5.1961 -0.5 0.0 0
M  V30 17 N 6.9282 -1.5 0.0 0
M  V30 18 N 6.0621 -3.0 0.0 0
M  V30 19 N 6.0621 0.0 0.0 0
M  V30 20 C 6.9282 -0.5 0.0 0
M  V30 21 N 7.7942 0.0 0.0 0
M  V30 END ATOM
M  V30 BEGIN BOND
M  V30 1 1 1 2
M  V30 2 1 1 3
M  V30 3 2 2 4
M  V30 4 1 2 5
M  V30 5 1 4 6
M  V30 6 1 4 7
M  V30 7 1 5 8
M  V30 8 2 5 9
M  V30 9 1 6 10
M  V30 10 2 7 11
M  V30 11 1 8 12
M  V30 12 1 11 13
M  V30 13 1 13 14
M  V30 14 2 14 15
M  V30 15 1 14 16
M  V30 16 1 15 17
M  V30 17 1 15 18
M  V30 18 2 16 19
M  V30 19 2 17 20
M  V30 20 1 20 21
M  V30 21 1 9 11
M  V30 22 1 19 20
M  V30 END BOND
M  V30 END CTAB
M  END
>  <Drug Name>
Trimethoprim

>  <Carbon Count>
14

>  <SMILES String>
NC1=NC=C(CC2=CC(OC)=C(OC)C(OC)=C2)C(N)=N1

$$$$
Timolol
Actelion Java MolfileCreator 2.0

  0  0  0  0  0  0              0 V3000
M  V30 BEGIN CTAB
M  V30 COUNTS 21 22 0 0 0
M  V30 BEGIN ATOM
M  V30 1 S 6.7788 -0.8364 0.0 0
M  V30 2 N 6.1096 -0.0932 0.0 0
M  V30 3 N 6.2788 -1.7024 0.0 0
M  V30 4 C 5.1961 -0.5 0.0 0
M  V30 5 C 5.3006 -1.4945 0.0 0
M  V30 6 O 4.3301 0.0 0.0 0
M  V30 7 N 4.5575 -2.1636 0.0 0
M  V30 8 C 3.4641 -0.5 0.0 0
M  V30 9 C 3.6064 -1.8546 0.0 0
M  V30 10 C 4.7654 -3.1418 0.0 0
M  V30 11 C 2.598 0.0 0.0 0 CFG=1
M  V30 12 C 2.8633 -2.5237 0.0 0
M  V30 13 C 4.0223 -3.8109 0.0 0
M  V30 14 O 2.598 1.0 0.0 0
M  V30 15 C 1.732 -0.5 0.0 0
M  V30 16 O 3.0712 -3.5019 0.0 0
M  V30 17 N 0.866 0.0 0.0 0
M  V30 18 C 0.0 -0.5 0.0 0
M  V30 19 C 0.4999 -1.366 0.0 0
M  V30 20 C -0.866 -0.9999 0.0 0
M  V30 21 C -0.4999 0.366 0.0 0
M  V30 END ATOM
M  V30 BEGIN BOND
M  V30 1 1 1 2
M  V30 2 1 1 3
M  V30 3 2 2 4
M  V30 4 2 3 5
M  V30 5 1 4 6
M  V30 6 1 5 7
M  V30 7 1 6 8
M  V30 8 1 7 9
M  V30 9 1 7 10
M  V30 10 1 8 11
M  V30 11 1 9 12
M  V30 12 1 10 13
M  V30 13 1 11 14 CFG=3
M  V30 14 1 11 15
M  V30 15 1 12 16
M  V30 16 1 15 17
M  V30 17 1 17 18
M  V30 18 1 18 19
M  V30 19 1 18 20
M  V30 20 1 18 21
M  V30 21 1 4 5
M  V30 22 1 13 16
M  V30 END BOND
M  V30 BEGIN COLLECTION
M  V30 MDLV30/STEABS ATOMS=(1 11)
M  V30 END COLLECTION
M  V30 END CTAB
M  END
>  <Drug Name>
Timolol

>  <Carbon Count>
13

>  <SMILES String>
O[C@@H](CNC(C)(C)C)COC1=NSN=C1N2CCOCC2

$$$$
Tropicamide
Actelion Java MolfileCreator 2.0

  0  0  0  0  0  0              0 V3000
M  V30 BEGIN CTAB
M  V30 COUNTS 12 12 0 0 0
M  V30 BEGIN ATOM
M  V30 1 O 3.4641 -0.5 0.0 0
M  V30 2 C 2.598 0.0 0.0 0
M  V30 3 N 2.598 1.0 0.0 0
M  V30 4 C 1.732 -0.5 0.0 0 CFG=1
M  V30 5 C 1.732 -1.5 0.0 0
M  V30 6 C 0.866 0.0 0.0 0
M  V30 7 C 0.866 -1.9999 0.0 0
M  V30 8 C 2.598 -2.0 0.0 0
M  V30 9 O 0.0 -0.5 0.0 0
M  V30 10 C 0.866 -2.9999 0.0 0
M  V30 11 C 2.598 -3.0 0.0 0
M  V30 12 C 1.732 -3.5 0.0 0
M  V30 END ATOM
M  V30 BEGIN BOND
M  V30 1 2 1 2
M  V30 2 1 2 3
M  V30 3 1 2 4
M  V30 4 1 4 5
M  V30 5 1 4 6 CFG=1
M  V30 6 2 5 7
M  V30 7 1 5 8
M  V30 8 1 6 9
M  V30 9 1 7 10
M  V30 10 2 8 11
M  V30 11 2 10 12
M  V30 12 1 11 12
M  V30 END BOND
M  V30 BEGIN COLLECTION
M  V30 MDLV30/STERAC1 ATOMS=(1 4)
M  V30 END COLLECTION
M  V30 END CTAB
M  END
>  <Drug Name>
Tropicamide

>  <Carbon Count>
17

>  <SMILES String>
OCC(C1=CC=CC=C1)C(N(CC2=CC=NC=C2)CC)=O

$$$$
Bupivacaine
Actelion Java MolfileCreator 2.0

  0  0  0  0  0  0              0 V3000
M  V30 BEGIN CTAB
M  V30 COUNTS 21 22 0 0 0
M  V30 BEGIN ATOM
M  V30 1 O 5.1961 1.4999 0.0 0
M  V30 2 C 4.3301 0.9999 0.0 0
M  V30 3 N 3.4641 1.4999 0.0 0
M  V30 4 C 4.3301 0.0 0.0 0 CFG=1
M  V30 5 C 3.4641 2.5 0.0 0
M  V30 6 N 5.1961 -0.5 0.0 0
M  V30 7 C 3.4641 -0.4999 0.0 0
M  V30 8 C 2.598 2.9999 0.0 0
M  V30 9 C 4.3301 3.0 0.0 0
M  V30 10 C 5.1961 -1.5 0.0 0
M  V30 11 C 6.0621 0.0 0.0 0
M  V30 12 C 3.4641 -1.4999 0.0 0
M  V30 13 C 2.598 3.9999 0.0 0
M  V30 14 C 1.732 2.4999 0.0 0
M  V30 15 C 4.3301 4.0 0.0 0
M  V30 16 C 5.1961 2.5 0.0 0
M  V30 17 C 4.3301 -2.0 0.0 0
M  V30 18 C 6.9282 -0.5 0.0 0
M  V30 19 C 3.4641 4.5 0.0 0
M  V30 20 C 7.7942 0.0 0.0 0
M  V30 21 C 8.6602 -0.5 0.0 0
M  V30 END ATOM
M  V30 BEGIN BOND
M  V30 1 2 1 2
M  V30 2 1 2 3
M  V30 3 1 4 2 CFG=1
M  V30 4 1 3 5
M  V30 5 1 4 6
M  V30 6 1 4 7
M  V30 7 2 5 8
M  V30 8 1 5 9
M  V30 9 1 6 10
M  V30 10 1 6 11
M  V30 11 1 7 12
M  V30 12 1 8 13
M  V30 13 1 8 14
M  V30 14 2 9 15
M  V30 15 1 9 16
M  V30 16 1 10 17
M  V30 17 1 11 18
M  V30 18 2 13 19
M  V30 19 1 18 20
M  V30 20 1 20 21
M  V30 21 1 12 17
M  V30 22 1 15 19
M  V30 END BOND
M  V30 BEGIN COLLECTION
M  V30 MDLV30/STERAC1 ATOMS=(1 4)
M  V30 END COLLECTION
M  V30 END CTAB
M  END
>  <Drug Name>
Bupivacaine

>  <Carbon Count>
18

>  <SMILES String>
CCCCN1CCCCC1C(NC2=C(C)C=CC=C2C)=O

$$$$
Pramoxine
Actelion Java MolfileCreator 2.0

  0  0  0  0  0  0              0 V3000
M  V30 BEGIN CTAB
M  V30 COUNTS 21 22 0 0 0
M  V30 BEGIN ATOM
M  V30 1 O 6.0621 0.9999 0.0 0
M  V30 2 C 5.1961 1.4999 0.0 0
M  V30 3 C 6.0621 0.0 0.0 0
M  V30 4 C 4.3301 0.9999 0.0 0
M  V30 5 C 5.1961 -0.5 0.0 0
M  V30 6 N 4.3301 0.0 0.0 0
M  V30 7 C 3.4641 -0.5 0.0 0
M  V30 8 C 2.598 0.0 0.0 0
M  V30 9 C 1.732 -0.5 0.0 0
M  V30 10 O 0.866 0.0 0.0 0
M  V30 11 C 0.0 -0.5 0.0 0
M  V30 12 C -0.866 0.0 0.0 0
M  V30 13 C 0.0 -1.4999 0.0 0
M  V30 14 C -1.732 -0.4999 0.0 0
M  V30 15 C -0.866 -1.9999 0.0 0
M  V30 16 C -1.732 -1.4999 0.0 0
M  V30 17 O -2.598 -1.9999 0.0 0
M  V30 18 C -3.4641 -1.4999 0.0 0
M  V30 19 C -4.3301 -1.9999 0.0 0
M  V30 20 C -5.1961 -1.4999 0.0 0
M  V30 21 C -6.0621 -1.9999 0.0 0
M  V30 END ATOM
M  V30 BEGIN BOND
M  V30 1 1 1 2
M  V30 2 1 1 3
M  V30 3 1 2 4
M  V30 4 1 3 5
M  V30 5 1 4 6
M  V30 6 1 6 7
M  V30 7 1 7 8
M  V30 8 1 8 9
M  V30 9 1 9 10
M  V30 10 1 10 11
M  V30 11 2 11 12
M  V30 12 1 11 13
M  V30 13 1 12 14
M  V30 14 2 13 15
M  V30 15 2 14 16
M  V30 16 1 16 17
M  V30 17 1 17 18
M  V30 18 1 18 19
M  V30 19 1 19 20
M  V30 20 1 20 21
M  V30 21 1 5 6
M  V30 22 1 15 16
M  V30 END BOND
M  V30 END CTAB
M  END
>  <Drug Name>
Pramoxine

>  <Carbon Count>
17

>  <SMILES String>
CCCCOC1=CC=C(C=C1)OCCCN2CCOCC2

$$$$
Cyclopentolate
Actelion Java MolfileCreator 2.0

  0  0  0  0  0  0              0 V3000
M  V30 BEGIN CTAB
M  V30 COUNTS 21 22 0 0 0
M  V30 BEGIN ATOM
M  V30 1 O 4.3301 0.9999 0.0 0
M  V30 2 C 4.3301 0.0 0.0 0
M  V30 3 O 3.4641 -0.5 0.0 0
M  V30 4 C 5.1961 -0.5 0.0 0 CFG=1
M  V30 5 C 2.598 0.0 0.0 0
M  V30 6 C 6.0621 0.0 0.0 0
M  V30 7 C 5.1961 -1.4999 0.0 0
M  V30 8 C 1.732 -0.5 0.0 0
M  V30 9 C 6.9282 -0.5 0.0 0
M  V30 10 C 6.0621 0.9999 0.0 0
M  V30 11 O 6.0871 -1.046 0.0 0
M  V30 12 C 4.3871 -2.0877 0.0 0
M  V30 13 C 6.0051 -2.0877 0.0 0
M  V30 14 N 0.866 0.0 0.0 0
M  V30 15 C 7.7942 0.0 0.0 0
M  V30 16 C 6.9282 1.4999 0.0 0
M  V30 17 C 4.6961 -3.0388 0.0 0
M  V30 18 C 5.6961 -3.0388 0.0 0
M  V30 19 C 0.866 1.0 0.0 0
M  V30 20 C 0.0 -0.5 0.0 0
M  V30 21 C 7.7942 0.9999 0.0 0
M  V30 END ATOM
M  V30 BEGIN BOND
M  V30 1 2 1 2
M  V30 2 1 2 3
M  V30 3 1 4 2 CFG=1
M  V30 4 1 3 5
M  V30 5 1 4 6
M  V30 6 1 4 7
M  V30 7 1 5 8
M  V30 8 2 6 9
M  V30 9 1 6 10
M  V30 10 1 7 11
M  V30 11 1 7 12
M  V30 12 1 7 13
M  V30 13 1 8 14
M  V30 14 1 9 15
M  V30 15 2 10 16
M  V30 16 1 12 17
M  V30 17 1 13 18
M  V30 18 1 14 19
M  V30 19 1 14 20
M  V30 20 2 15 21
M  V30 21 1 16 21
M  V30 22 1 17 18
M  V30 END BOND
M  V30 BEGIN COLLECTION
M  V30 MDLV30/STERAC1 ATOMS=(1 4)
M  V30 END COLLECTION
M  V30 END CTAB
M  END
>  <Drug Name>
Cyclopentolate

>  <Carbon Count>
17

>  <SMILES String>
CN(C)CCOC(C(C1=CC=CC=C1)C2(O)CCCC2)=O

$$$$
Sulfisoxazole Acetyl
Actelion Java MolfileCreator 2.0

  0  0  0  0  0  0              0 V3000
M  V30 BEGIN CTAB
M  V30 COUNTS 21 22 0 0 0
M  V30 BEGIN ATOM
M  V30 1 S 3.8971 0.0 0.0 0
M  V30 2 O 4.6471 1.299 0.0 0
M  V30 3 O 3.1471 1.299 0.0 0
M  V30 4 N 2.598 -0.75 0.0 0
M  V30 5 C 5.1961 -0.75 0.0 0
M  V30 6 C 2.598 -2.25 0.0 0
M  V30 7 C 1.299 0.0 0.0 0
M  V30 8 C 5.1961 -2.25 0.0 0
M  V30 9 C 6.4952 0.0 0.0 0
M  V30 10 O 3.8116 -3.1316 0.0 0
M  V30 11 C 1.3845 -3.1316 0.0 0
M  V30 12 O 1.299 1.5 0.0 0
M  V30 13 C 0.0 -0.75 0.0 0
M  V30 14 C 6.4952 -3.0 0.0 0
M  V30 15 C 7.7942 -0.75 0.0 0
M  V30 16 N 3.348 -4.5582 0.0 0
M  V30 17 C 1.848 -4.5582 0.0 0
M  V30 18 C -0.042 -2.6681 0.0 0
M  V30 19 C 7.7942 -2.25 0.0 0
M  V30 20 C 0.9664 -5.7717 0.0 0
M  V30 21 N 9.0932 -3.0 0.0 0
M  V30 END ATOM
M  V30 BEGIN BOND
M  V30 1 2 1 2
M  V30 2 2 1 3
M  V30 3 1 1 4
M  V30 4 1 1 5
M  V30 5 1 4 6
M  V30 6 1 4 7
M  V30 7 2 5 8
M  V30 8 1 5 9
M  V30 9 1 6 10
M  V30 10 2 6 11
M  V30 11 2 7 12
M  V30 12 1 7 13
M  V30 13 1 8 14
M  V30 14 2 9 15
M  V30 15 1 10 16
M  V30 16 1 11 17
M  V30 17 1 11 18
M  V30 18 2 14 19
M  V30 19 1 17 20
M  V30 20 1 19 21
M  V30 21 1 15 19
M  V30 22 2 16 17
M  V30 END BOND
M  V30 END CTAB
M  END
>  <Drug Name>
Sulfisoxazole Acetyl

>  <Carbon Count>
13

>  <SMILES String>
NC1=CC=C(S(N(C(C)=O)C2=C(C)C(C)=NO2)(=O)=O)C=C1

$$$$
Pyrilamine
Actelion Java MolfileCreator 2.0

  0  0  0  0  0  0              0 V3000
M  V30 BEGIN CTAB
M  V30 COUNTS 21 22 0 0 0
M  V30 BEGIN ATOM
M  V30 1 O 7.7942 -2.0 0.0 0
M  V30 2 C 6.9282 -1.5 0.0 0
M  V30 3 C 8.6602 -1.5 0.0 0
M  V30 4 C 6.9282 -0.5 0.0 0
M  V30 5 C 6.0621 -2.0 0.0 0
M  V30 6 C 6.0621 0.0 0.0 0
M  V30 7 C 5.1961 -1.5 0.0 0
M  V30 8 C 5.1961 -0.5 0.0 0
M  V30 9 C 4.3301 0.0 0.0 0
M  V30 10 N 3.4641 -0.5 0.0 0
M  V30 11 C 3.4641 -1.5 0.0 0
M  V30 12 C 2.598 0.0 0.0 0
M  V30 13 N 2.598 -1.9999 0.0 0
M  V30 14 C 4.3301 -2.0 0.0 0
M  V30 15 C 1.732 -0.5 0.0 0
M  V30 16 C 2.598 -2.9999 0.0 0
M  V30 17 C 4.3301 -3.0 0.0 0
M  V30 18 N 0.866 0.0 0.0 0
M  V30 19 C 3.4641 -3.5 0.0 0
M  V30 20 C 0.866 1.0 0.0 0
M  V30 21 C 0.0 -0.5 0.0 0
M  V30 END ATOM
M  V30 BEGIN BOND
M  V30 1 1 1 2
M  V30 2 1 1 3
M  V30 3 2 2 4
M  V30 4 1 2 5
M  V30 5 1 4 6
M  V30 6 2 5 7
M  V30 7 2 6 8
M  V30 8 1 8 9
M  V30 9 1 9 10
M  V30 10 1 10 11
M  V30 11 1 10 12
M  V30 12 2 11 13
M  V30 13 1 11 14
M  V30 14 1 12 15
M  V30 15 1 13 16
M  V30 16 2 14 17
M  V30 17 1 15 18
M  V30 18 2 16 19
M  V30 19 1 18 20
M  V30 20 1 18 21
M  V30 21 1 7 8
M  V30 22 1 17 19
M  V30 END BOND
M  V30 END CTAB
M  END
>  <Drug Name>
Pyrilamine

>  <Carbon Count>
17

>  <SMILES String>
CN(C)CCN(CC1=CC=C(OC)C=C1)C2=NC=CC=C2

$$$$
Morphine
Actelion Java MolfileCreator 2.0

  0  0  0  0  0  0              0 V3000
M  V30 BEGIN CTAB
M  V30 COUNTS 21 25 0 0 0
M  V30 BEGIN ATOM
M  V30 1 O 0.1904 1.7902 0.0 0
M  V30 2 C 0.8422 1.0319 0.0 0
M  V30 3 C 0.7102 2.6445 0.0 0 CFG=2
M  V30 4 C 0.866 0.0 0.0 0
M  V30 5 C 1.7649 1.4175 0.0 0
M  V30 6 C 1.6833 2.4141 0.0 0 CFG=2
M  V30 7 C 0.5658 3.6665 0.0 0 CFG=1
M  V30 8 O 0.0 -0.5 0.0 0
M  V30 9 C 1.7203 -0.5198 0.0 0
M  V30 10 C 2.6688 0.9898 0.0 0
M  V30 11 C 2.5056 2.9831 0.0 0 CFG=1
M  V30 12 C 1.5595 3.709 0.0 0
M  V30 13 O -0.3699 4.019 0.0 0
M  V30 14 C 1.3241 4.3184 0.0 0
M  V30 15 C 2.5976 -0.0398 0.0 0
M  V30 16 C 3.4912 1.5588 0.0 0
M  V30 17 C 2.2975 3.8895 0.0 0
M  V30 18 C 3.4096 2.5555 0.0 0 CFG=1
M  V30 19 C 2.4044 4.3441 0.0 0
M  V30 20 N 3.3007 3.8843 0.0 0
M  V30 21 C 4.1231 4.4533 0.0 0
M  V30 END ATOM
M  V30 BEGIN BOND
M  V30 1 1 1 2
M  V30 2 1 3 1 CFG=1
M  V30 3 2 2 4
M  V30 4 1 2 5
M  V30 5 1 3 6
M  V30 6 1 3 7
M  V30 7 1 4 8
M  V30 8 1 4 9
M  V30 9 2 5 10
M  V30 10 1 6 11
M  V30 11 1 6 12 CFG=3
M  V30 12 1 7 13 CFG=1
M  V30 13 1 7 14
M  V30 14 2 9 15
M  V30 15 1 10 16
M  V30 16 1 11 17 CFG=1
M  V30 17 1 11 18
M  V30 18 1 12 19
M  V30 19 1 18 20 CFG=3
M  V30 20 1 20 21
M  V30 21 1 5 6
M  V30 22 1 10 15
M  V30 23 2 14 17
M  V30 24 1 16 18
M  V30 25 1 19 20
M  V30 END BOND
M  V30 BEGIN COLLECTION
M  V30 MDLV30/STEABS ATOMS=(5 3 6 7 11 18)
M  V30 END COLLECTION
M  V30 END CTAB
M  END
>  <Drug Name>
Morphine

>  <Carbon Count>
17

>  <SMILES String>
OC1=C2O[C@@H]3[C@]45C2=C(C=C1)C[C@@H](N(CC5)C)[C@]4([H])C=C[C@@H]3O

$$$$
Propoxycaine
Actelion Java MolfileCreator 2.0

  0  0  0  0  0  0              0 V3000
M  V30 BEGIN CTAB
M  V30 COUNTS 21 21 0 0 0
M  V30 BEGIN ATOM
M  V30 1 O 6.4951 0.0 0.0 0
M  V30 2 C 7.7942 -0.75 0.0 0
M  V30 3 O 9.0932 0.0 0.0 0
M  V30 4 C 7.7942 -2.25 0.0 0
M  V30 5 C 10.3923 -0.75 0.0 0
M  V30 6 C 6.4951 -2.9999 0.0 0
M  V30 7 C 9.0932 -3.0 0.0 0
M  V30 8 C 11.6913 0.0 0.0 0
M  V30 9 O 5.1961 -2.25 0.0 0
M  V30 10 C 6.4951 -4.5 0.0 0
M  V30 11 C 9.0932 -4.5 0.0 0
M  V30 12 N 12.9903 -0.75 0.0 0
M  V30 13 C 3.8971 -2.9999 0.0 0
M  V30 14 C 7.7942 -5.25 0.0 0
M  V30 15 C 12.9903 -2.25 0.0 0
M  V30 16 C 14.2894 0.0 0.0 0
M  V30 17 C 2.598 -2.2499 0.0 0
M  V30 18 N 7.7942 -6.75 0.0 0
M  V30 19 C 11.6913 -3.0 0.0 0
M  V30 20 C 15.5884 -0.75 0.0 0
M  V30 21 C 1.299 -3.0 0.0 0
M  V30 END ATOM
M  V30 BEGIN BOND
M  V30 1 2 1 2
M  V30 2 1 2 3
M  V30 3 1 2 4
M  V30 4 1 3 5
M  V30 5 2 4 6
M  V30 6 1 4 7
M  V30 7 1 5 8
M  V30 8 1 6 9
M  V30 9 1 6 10
M  V30 10 2 7 11
M  V30 11 1 8 12
M  V30 12 1 9 13
M  V30 13 2 10 14
M  V30 14 1 12 15
M  V30 15 1 12 16
M  V30 16 1 13 17
M  V30 17 1 14 18
M  V30 18 1 15 19
M  V30 19 1 16 20
M  V30 20 1 17 21
M  V30 21 1 11 14
M  V30 END BOND
M  V30 END CTAB
M  END
>  <Drug Name>
Propoxycaine

>  <Carbon Count>
16

>  <SMILES String>
CCCOC1=CC(N)=CC=C1C(OCCN(CC)CC)=O

$$$$
Imipenem
Actelion Java MolfileCreator 2.0

  0  0  0  0  0  0              0 V3000
M  V30 BEGIN CTAB
M  V30 COUNTS 20 21 0 0 0
M  V30 BEGIN ATOM
M  V30 1 S 4.3301 0.0 0.0 0
M  V30 2 C 5.1961 -0.5 0.0 0
M  V30 3 C 3.4641 -0.5 0.0 0
M  V30 4 C 6.1096 -0.0932 0.0 0
M  V30 5 C 5.3006 -1.4945 0.0 0
M  V30 6 C 2.598 0.0 0.0 0
M  V30 7 N 6.7788 -0.8364 0.0 0
M  V30 8 C 6.3176 0.8848 0.0 0
M  V30 9 C 6.2788 -1.7024 0.0 0 CFG=1
M  V30 10 N 1.732 -0.5 0.0 0
M  V30 11 C 7.6448 -1.3364 0.0 0
M  V30 12 O 7.2686 1.1939 0.0 0
M  V30 13 O 5.5744 1.554 0.0 0
M  V30 14 C 7.1448 -2.2024 0.0 0 CFG=2
M  V30 15 C 0.866 0.0 0.0 0
M  V30 16 O 8.6107 -1.0775 0.0 0
M  V30 17 C 7.4036 -3.1683 0.0 0 CFG=2
M  V30 18 N 0.0 -0.5 0.0 0
M  V30 19 O 6.6965 -3.8754 0.0 0
M  V30 20 C 8.3695 -3.4271 0.0 0
M  V30 END ATOM
M  V30 BEGIN BOND
M  V30 1 1 1 2
M  V30 2 1 1 3
M  V30 3 2 2 4
M  V30 4 1 2 5
M  V30 5 1 3 6
M  V30 6 1 4 7
M  V30 7 1 4 8
M  V30 8 1 5 9
M  V30 9 1 6 10
M  V30 10 1 7 11
M  V30 11 2 8 12
M  V30 12 1 8 13
M  V30 13 1 9 14
M  V30 14 2 10 15
M  V30 15 2 11 16
M  V30 16 1 14 17
M  V30 17 1 15 18
M  V30 18 1 17 19 CFG=1
M  V30 19 1 17 20
M  V30 20 1 9 7 CFG=1
M  V30 21 1 14 11 CFG=3
M  V30 END BOND
M  V30 BEGIN COLLECTION
M  V30 MDLV30/STEABS ATOMS=(3 9 14 17)
M  V30 END COLLECTION
M  V30 END CTAB
M  END
>  <Drug Name>
Imipenem

>  <Carbon Count>
12

>  <SMILES String>
O=C(O)/C1=C(\SCC/N=C/N)C[C@H]2N1C(=O)[C@@H]2[C@H](O)C.O

$$$$
Triprolidine
Actelion Java MolfileCreator 2.0

  0  0  0  0  0  0              0 V3000
M  V30 BEGIN CTAB
M  V30 COUNTS 21 23 0 0 0
M  V30 BEGIN ATOM
M  V30 1 N 4.3301 0.0 0.0 0
M  V30 2 C 3.4641 -0.5 0.0 0
M  V30 3 C 5.1961 -0.5 0.0 0
M  V30 4 C 2.598 0.0 0.0 0
M  V30 5 C 3.4641 -1.5 0.0 0
M  V30 6 C 5.1961 -1.5 0.0 0
M  V30 7 C 2.598 1.0 0.0 0
M  V30 8 C 1.732 -0.5 0.0 0
M  V30 9 C 4.3301 -2.0 0.0 0
M  V30 10 C 3.4641 1.5 0.0 0
M  V30 11 C 1.732 1.4999 0.0 0
M  V30 12 C 0.866 0.0 0.0 0
M  V30 13 C 3.4641 2.5 0.0 0
M  V30 14 C 1.732 2.5 0.0 0
M  V30 15 N 0.0 -0.5 0.0 0
M  V30 16 C 2.598 3.0 0.0 0
M  V30 17 C -0.9135 -0.0932 0.0 0
M  V30 18 C -0.1045 -1.4945 0.0 0
M  V30 19 C 2.598 4.0 0.0 0
M  V30 20 C -1.5826 -0.8364 0.0 0
M  V30 21 C -1.0826 -1.7024 0.0 0
M  V30 END ATOM
M  V30 BEGIN BOND
M  V30 1 2 1 2
M  V30 2 1 1 3
M  V30 3 1 2 4
M  V30 4 1 2 5
M  V30 5 2 3 6
M  V30 6 1 4 7
M  V30 7 2 4 8
M  V30 8 2 5 9
M  V30 9 2 7 10
M  V30 10 1 7 11
M  V30 11 1 8 12
M  V30 12 1 10 13
M  V30 13 2 11 14
M  V30 14 1 12 15
M  V30 15 2 13 16
M  V30 16 1 15 17
M  V30 17 1 15 18
M  V30 18 1 16 19
M  V30 19 1 17 20
M  V30 20 1 18 21
M  V30 21 1 6 9
M  V30 22 1 14 16
M  V30 23 1 20 21
M  V30 END BOND
M  V30 END CTAB
M  END
>  <Drug Name>
Triprolidine

>  <Carbon Count>
19

>  <SMILES String>
CC1=CC=C(C=C1)/C(C2=NC=CC=C2)=C\CN3CCCC3

$$$$
Amitriptyline
Actelion Java MolfileCreator 2.0

  0  0  0  0  0  0              0 V3000
M  V30 BEGIN CTAB
M  V30 COUNTS 21 23 0 0 0
M  V30 BEGIN ATOM
M  V30 1 N 5.1961 -0.75 0.0 0
M  V30 2 C 3.8971 0.0 0.0 0
M  V30 3 C 6.4951 0.0 0.0 0
M  V30 4 C 5.1961 -2.25 0.0 0
M  V30 5 C 2.598 -0.75 0.0 0
M  V30 6 C 1.299 0.0 0.0 0
M  V30 7 C 0.0 -0.75 0.0 0
M  V30 8 C 0.112 -2.2458 0.0 0
M  V30 9 C -1.2393 0.0949 0.0 0
M  V30 10 C -0.9874 -3.266 0.0 0
M  V30 11 C 1.5454 -2.6879 0.0 0
M  V30 12 C -2.6727 -0.3471 0.0 0
M  V30 13 C -0.9055 1.5573 0.0 0
M  V30 14 C -0.6537 -4.7284 0.0 0
M  V30 15 C -2.4707 -3.0425 0.0 0
M  V30 16 C 1.8792 -4.1503 0.0 0
M  V30 17 C -3.7722 0.6731 0.0 0
M  V30 18 C -3.2207 -1.7434 0.0 0
M  V30 19 C -2.0051 2.5776 0.0 0
M  V30 20 C 0.7796 -5.1705 0.0 0
M  V30 21 C -3.4385 2.1354 0.0 0
M  V30 END ATOM
M  V30 BEGIN BOND
M  V30 1 1 1 2
M  V30 2 1 1 3
M  V30 3 1 1 4
M  V30 4 1 2 5
M  V30 5 1 5 6
M  V30 6 2 6 7
M  V30 7 1 7 8
M  V30 8 1 7 9
M  V30 9 2 8 10
M  V30 10 1 8 11
M  V30 11 2 9 12
M  V30 12 1 9 13
M  V30 13 1 10 14
M  V30 14 1 10 15
M  V30 15 2 11 16
M  V30 16 1 12 17
M  V30 17 1 12 18
M  V30 18 2 13 19
M  V30 19 2 14 20
M  V30 20 2 17 21
M  V30 21 1 15 18
M  V30 22 1 16 20
M  V30 23 1 19 21
M  V30 END BOND
M  V30 END CTAB
M  END
>  <Drug Name>
Amitriptyline

>  <Carbon Count>
20

>  <SMILES String>
CN(CC/C=C1C2=C(CCC3=C\1C=CC=C3)C=CC=C2)C

$$$$
Efavirenz
Actelion Java MolfileCreator 2.0

  0  0  0  0  0  0              0 V3000
M  V30 BEGIN CTAB
M  V30 COUNTS 21 23 0 0 0
M  V30 BEGIN ATOM
M  V30 1 Cl 1.3009 0.0 0.0 0
M  V30 2 C 0.0 -0.751 0.0 0
M  V30 3 C -1.3009 0.0 0.0 0
M  V30 4 C 0.0 -2.2532 0.0 0
M  V30 5 C -2.6018 -0.751 0.0 0
M  V30 6 C -1.3009 -3.0043 0.0 0
M  V30 7 C -2.6018 -2.2532 0.0 0
M  V30 8 C -3.9027 0.0 0.0 0 CFG=1
M  V30 9 N -3.9027 -3.0043 0.0 0
M  V30 10 O -5.2036 -0.751 0.0 0
M  V30 11 C -3.9027 1.5021 0.0 0
M  V30 12 C -5.2036 0.751 0.0 0
M  V30 13 C -5.2036 -2.2532 0.0 0
M  V30 14 C -3.9027 3.0043 0.0 0
M  V30 15 F -5.9547 -0.5498 0.0 0
M  V30 16 F -6.5045 1.5021 0.0 0
M  V30 17 F -4.553 2.0495 0.0 0
M  V30 18 O -6.5045 -3.0043 0.0 0
M  V30 19 C -3.9027 4.5065 0.0 0
M  V30 20 C -4.6538 5.8074 0.0 0
M  V30 21 C -3.1516 5.8074 0.0 0
M  V30 END ATOM
M  V30 BEGIN BOND
M  V30 1 1 1 2
M  V30 2 2 2 3
M  V30 3 1 2 4
M  V30 4 1 3 5
M  V30 5 2 4 6
M  V30 6 2 5 7
M  V30 7 1 5 8
M  V30 8 1 7 9
M  V30 9 1 8 10
M  V30 10 1 8 11
M  V30 11 1 8 12 CFG=3
M  V30 12 1 9 13
M  V30 13 3 11 14
M  V30 14 1 12 15
M  V30 15 1 12 16
M  V30 16 1 12 17
M  V30 17 2 13 18
M  V30 18 1 14 19
M  V30 19 1 19 20
M  V30 20 1 19 21
M  V30 21 1 6 7
M  V30 22 1 10 13
M  V30 23 1 20 21
M  V30 END BOND
M  V30 BEGIN COLLECTION
M  V30 MDLV30/STEABS ATOMS=(1 8)
M  V30 END COLLECTION
M  V30 END CTAB
M  END
>  <Drug Name>
Efavirenz

>  <Carbon Count>
14

>  <SMILES String>
FC(F)([C@@]1(C#CC2CC2)OC(NC3=C1C=C(C=C3)Cl)=O)F

$$$$
Pentazocine
Actelion Java MolfileCreator 2.0

  0  0  0  0  0  0              0 V3000
M  V30 BEGIN CTAB
M  V30 COUNTS 21 23 0 0 0
M  V30 BEGIN ATOM
M  V30 1 O 6.9282 -4.8333 0.0 0
M  V30 2 C 6.0621 -4.3333 0.0 0
M  V30 3 C 6.0621 -3.3333 0.0 0
M  V30 4 C 5.1961 -4.8333 0.0 0
M  V30 5 C 5.1961 -2.8333 0.0 0
M  V30 6 C 4.3301 -4.3333 0.0 0
M  V30 7 C 4.3301 -3.3333 0.0 0
M  V30 8 C 5.1961 -1.8333 0.0 0
M  V30 9 C 3.4641 -2.8333 0.0 0
M  V30 10 C 4.3301 -1.3333 0.0 0
M  V30 11 C 5.1961 -0.4999 0.0 0
M  V30 12 C 6.1961 -1.8333 0.0 0
M  V30 13 C 3.4641 -1.8333 0.0 0
M  V30 14 C 4.3301 -0.4248 0.0 0
M  V30 15 C 4.3301 0.0375 0.0 0
M  V30 16 N 3.4641 -0.5 0.0 0
M  V30 17 C 2.598 0.0 0.0 0
M  V30 18 C 1.732 -0.5 0.0 0
M  V30 19 C 0.866 0.0 0.0 0
M  V30 20 C 0.866 1.0 0.0 0
M  V30 21 C 0.0 -0.5 0.0 0
M  V30 END ATOM
M  V30 BEGIN BOND
M  V30 1 1 1 2
M  V30 2 2 2 3
M  V30 3 1 2 4
M  V30 4 1 3 5
M  V30 5 2 4 6
M  V30 6 2 5 7
M  V30 7 1 5 8
M  V30 8 1 7 9
M  V30 9 1 8 10
M  V30 10 1 8 11
M  V30 11 1 8 12
M  V30 12 1 9 13
M  V30 13 1 10 14
M  V30 14 1 11 15
M  V30 15 1 13 16
M  V30 16 1 16 17
M  V30 17 1 17 18
M  V30 18 2 18 19
M  V30 19 1 19 20
M  V30 20 1 19 21
M  V30 21 1 6 7
M  V30 22 1 10 13
M  V30 23 1 15 16
M  V30 END BOND
M  V30 END CTAB
M  END
>  <Drug Name>
Pentazocine

>  <Carbon Count>
19

>  <SMILES String>
CC1C2(C3=CC(O)=CC=C3CC1N(CC2)C/C=C(C)\C)C

$$$$
Atropine
Actelion Java MolfileCreator 2.0

  0  0  0  0  0  0              0 V3000
M  V30 BEGIN CTAB
M  V30 COUNTS 21 23 0 0 0
M  V30 BEGIN ATOM
M  V30 1 O 2.598 1.0 0.0 0
M  V30 2 C 2.598 0.0 0.0 0
M  V30 3 O 3.4641 -0.5 0.0 0
M  V30 4 C 1.732 -0.5 0.0 0
M  V30 5 C 4.2816 -0.028 0.0 0 CFG=2
M  V30 6 C 1.732 -1.5 0.0 0
M  V30 7 C 0.866 0.0 0.0 0
M  V30 8 C 4.3301 0.9999 0.0 0
M  V30 9 C 5.1961 -0.4999 0.0 0
M  V30 10 C 0.866 -1.9999 0.0 0
M  V30 11 C 2.598 -2.0 0.0 0
M  V30 12 O 0.0 -0.5 0.0 0
M  V30 13 C 5.5386 1.6319 0.0 0 CFG=1
M  V30 14 C 6.3476 0.2306 0.0 0 CFG=2
M  V30 15 C 0.866 -2.9999 0.0 0
M  V30 16 C 2.598 -3.0 0.0 0
M  V30 17 N 5.4341 0.6374 0.0 0
M  V30 18 C 6.5168 1.8398 0.0 0
M  V30 19 C 7.0168 0.9738 0.0 0
M  V30 20 C 1.732 -3.5 0.0 0
M  V30 21 C 4.6661 0.1939 0.0 0
M  V30 END ATOM
M  V30 BEGIN BOND
M  V30 1 2 1 2
M  V30 2 1 2 3
M  V30 3 1 2 4
M  V30 4 1 5 3 CFG=3
M  V30 5 1 4 6
M  V30 6 1 4 7
M  V30 7 1 5 8
M  V30 8 1 5 9
M  V30 9 2 6 10
M  V30 10 1 6 11
M  V30 11 1 7 12
M  V30 12 1 8 13
M  V30 13 1 9 14
M  V30 14 1 10 15
M  V30 15 2 11 16
M  V30 16 1 13 17 CFG=1
M  V30 17 1 13 18
M  V30 18 1 14 19
M  V30 19 2 15 20
M  V30 20 1 17 21
M  V30 21 1 14 17 CFG=1
M  V30 22 1 16 20
M  V30 23 1 18 19
M  V30 END BOND
M  V30 BEGIN COLLECTION
M  V30 MDLV30/STEABS ATOMS=(3 5 13 14)
M  V30 END COLLECTION
M  V30 END CTAB
M  END
>  <Drug Name>
Atropine

>  <Carbon Count>
17

>  <SMILES String>
OCC(C1=CC=CC=C1)C(OC2CC3CCC(N3C)C2)=O

$$$$
Chlordiazepoxide
Actelion Java MolfileCreator 2.0

  0  0  0  0  0  0              0 V3000
M  V30 BEGIN CTAB
M  V30 COUNTS 21 23 0 0 0
M  V30 BEGIN ATOM
M  V30 1 Cl 4.2608 -4.5228 0.0 0
M  V30 2 C 3.6373 -3.741 0.0 0
M  V30 3 C 4.0026 -2.8101 0.0 0
M  V30 4 C 2.6485 -3.89 0.0 0
M  V30 5 C 3.3792 -2.0283 0.0 0
M  V30 6 C 2.025 -3.1082 0.0 0
M  V30 7 C 3.8792 -1.1623 0.0 0
M  V30 8 C 2.3903 -2.1773 0.0 0
M  V30 9 N 3.5138 -0.2314 0.0 0 CHG=1
M  V30 10 C 4.8764 -1.237 0.0 0
M  V30 11 N 1.6573 -1.4972 0.0 0
M  V30 12 O 4.194 0.5016 0.0 0 CHG=-1
M  V30 13 C 2.5582 0.0633 0.0 0
M  V30 14 C 5.3102 -2.138 0.0 0
M  V30 15 C 5.4397 -0.4108 0.0 0
M  V30 16 C 1.732 -0.5 0.0 0
M  V30 17 C 6.3074 -2.2127 0.0 0
M  V30 18 C 6.4369 -0.4855 0.0 0
M  V30 19 N 0.866 0.0 0.0 0
M  V30 20 C 6.8708 -1.3864 0.0 0
M  V30 21 C 0.0 -0.5 0.0 0
M  V30 END ATOM
M  V30 BEGIN BOND
M  V30 1 1 1 2
M  V30 2 2 2 3
M  V30 3 1 2 4
M  V30 4 1 3 5
M  V30 5 2 4 6
M  V30 6 1 5 7
M  V30 7 2 5 8
M  V30 8 2 7 9
M  V30 9 1 7 10
M  V30 10 1 8 11
M  V30 11 1 9 12
M  V30 12 1 9 13
M  V30 13 2 10 14
M  V30 14 1 10 15
M  V30 15 2 11 16
M  V30 16 1 14 17
M  V30 17 2 15 18
M  V30 18 1 16 19
M  V30 19 2 17 20
M  V30 20 1 19 21
M  V30 21 1 6 8
M  V30 22 1 13 16
M  V30 23 1 18 20
M  V30 END BOND
M  V30 END CTAB
M  END
>  <Drug Name>
Chlordiazepoxide

>  <Carbon Count>
16

>  <SMILES String>
[O-][N+]1=C(C2=CC=CC=C2)C3=C(C=CC(Cl)=C3)N=C(NC)C1

$$$$
Chlorthalidone
Actelion Java MolfileCreator 2.0

  0  0  0  0  0  0              0 V3000
M  V30 BEGIN CTAB
M  V30 COUNTS 22 24 0 0 0
M  V30 BEGIN ATOM
M  V30 1 Cl 3.4641 1.4999 0.0 0
M  V30 2 C 2.598 0.9999 0.0 0
M  V30 3 C 1.732 1.4999 0.0 0
M  V30 4 C 2.598 0.0 0.0 0
M  V30 5 S 1.732 2.4999 0.0 0
M  V30 6 C 0.866 0.9999 0.0 0
M  V30 7 C 1.732 -0.5 0.0 0
M  V30 8 O 2.732 2.4999 0.0 0
M  V30 9 O 0.732 2.5 0.0 0
M  V30 10 N 1.732 3.4999 0.0 0
M  V30 11 C 0.866 0.0 0.0 0
M  V30 12 C 0.0 -0.5 0.0 0 CFG=2
M  V30 13 O 0.8386 -1.0446 0.0 0
M  V30 14 N -0.9135 -0.0932 0.0 0
M  V30 15 C -0.1045 -1.4945 0.0 0
M  V30 16 C -1.5826 -0.8364 0.0 0
M  V30 17 C -1.0826 -1.7024 0.0 0
M  V30 18 C 0.5646 -2.2376 0.0 0
M  V30 19 O -2.5771 -0.7318 0.0 0
M  V30 20 C -1.3916 -2.6534 0.0 0
M  V30 21 C 0.2555 -3.1887 0.0 0
M  V30 22 C -0.7225 -3.3966 0.0 0
M  V30 END ATOM
M  V30 BEGIN BOND
M  V30 1 1 1 2
M  V30 2 2 2 3
M  V30 3 1 2 4
M  V30 4 1 3 5
M  V30 5 1 3 6
M  V30 6 2 4 7
M  V30 7 2 5 8
M  V30 8 2 5 9
M  V30 9 1 5 10
M  V30 10 2 6 11
M  V30 11 1 11 12
M  V30 12 1 12 13 CFG=3
M  V30 13 1 12 14
M  V30 14 1 12 15
M  V30 15 1 14 16
M  V30 16 2 15 17
M  V30 17 1 15 18
M  V30 18 2 16 19
M  V30 19 1 17 20
M  V30 20 2 18 21
M  V30 21 2 20 22
M  V30 22 1 7 11
M  V30 23 1 16 17
M  V30 24 1 21 22
M  V30 END BOND
M  V30 BEGIN COLLECTION
M  V30 MDLV30/STERAC1 ATOMS=(1 12)
M  V30 END COLLECTION
M  V30 END CTAB
M  END
>  <Drug Name>
Chlorthalidone

>  <Carbon Count>
14

>  <SMILES String>
O=C1NC(C2=CC(S(N)(=O)=O)=C(Cl)C=C2)(O)C3=C1C=CC=C3

$$$$
Topiramate
Actelion Java MolfileCreator 2.0

  0  0  0  0  0  0              0 V3000
M  V30 BEGIN CTAB
M  V30 COUNTS 22 24 0 0 0
M  V30 BEGIN ATOM
M  V30 1 S 3.8971 0.0 0.0 0
M  V30 2 O 4.6471 -1.299 0.0 0
M  V30 3 O 3.1471 1.299 0.0 0
M  V30 4 O 2.598 -0.75 0.0 0
M  V30 5 N 5.1961 0.75 0.0 0
M  V30 6 C 1.299 0.0 0.0 0
M  V30 7 C 0.0 -0.75 0.0 0 CFG=2
M  V30 8 O 1.2135 -1.6316 0.0 0
M  V30 9 O -0.1567 0.7417 0.0 0
M  V30 10 C -1.3703 -1.3601 0.0 0 CFG=1
M  V30 11 C 1.0567 -3.1234 0.0 0
M  V30 12 C -1.624 1.0536 0.0 0
M  V30 13 O -2.374 -0.2453 0.0 0
M  V30 14 C -1.5271 -2.8518 0.0 0 CFG=1
M  V30 15 C -0.3135 -3.7335 0.0 0 CFG=2
M  V30 16 C -1.4672 2.5454 0.0 0
M  V30 17 C -2.8375 1.9353 0.0 0
M  V30 18 O -2.7406 -3.7335 0.0 0
M  V30 19 O -0.7771 -5.1601 0.0 0
M  V30 20 C -2.2771 -5.1601 0.0 0
M  V30 21 C -3.6474 -5.7702 0.0 0
M  V30 22 C -2.4338 -6.6519 0.0 0
M  V30 END ATOM
M  V30 BEGIN BOND
M  V30 1 2 1 2
M  V30 2 2 1 3
M  V30 3 1 1 4
M  V30 4 1 1 5
M  V30 5 1 4 6
M  V30 6 1 7 6 CFG=1
M  V30 7 1 7 8
M  V30 8 1 7 9
M  V30 9 1 7 10
M  V30 10 1 8 11
M  V30 11 1 9 12
M  V30 12 1 10 13 CFG=3
M  V30 13 1 10 14
M  V30 14 1 11 15
M  V30 15 1 12 16
M  V30 16 1 12 17
M  V30 17 1 14 18 CFG=1
M  V30 18 1 15 19 CFG=1
M  V30 19 1 18 20
M  V30 20 1 20 21
M  V30 21 1 20 22
M  V30 22 1 12 13
M  V30 23 1 14 15
M  V30 24 1 19 20
M  V30 END BOND
M  V30 BEGIN COLLECTION
M  V30 MDLV30/STEABS ATOMS=(4 7 10 14 15)
M  V30 END COLLECTION
M  V30 END CTAB
M  END
>  <Drug Name>
Topiramate

>  <Carbon Count>
12

>  <SMILES String>
CC1(C)O[C@@H]2CO[C@]3(COS(N)(=O)=O)[C@@H](OC(C)(C)O3)[C@@H]2O1

$$$$
Palonosetron
Actelion Java MolfileCreator 2.0

  0  0  0  0  0  0              0 V3000
M  V30 BEGIN CTAB
M  V30 COUNTS 22 26 0 0 0
M  V30 BEGIN ATOM
M  V30 1 O 0.866 0.0 0.0 0
M  V30 2 C 0.0 -0.5 0.0 0
M  V30 3 N -0.866 0.0 0.0 0
M  V30 4 C 0.0 -1.4999 0.0 0
M  V30 5 C -0.866 1.0 0.0 0 CFG=2
M  V30 6 C -1.732 -0.4999 0.0 0
M  V30 7 C -0.866 -1.9999 0.0 0
M  V30 8 C 0.866 -1.9999 0.0 0
M  V30 9 C 0.0 1.4999 0.0 0
M  V30 10 C -1.732 1.5 0.0 0
M  V30 11 C -1.732 -1.4999 0.0 0 CFG=1
M  V30 12 C -0.866 -2.9999 0.0 0
M  V30 13 C 0.866 -3.0 0.0 0
M  V30 14 C -0.1261 2.5312 0.0 0
M  V30 15 C 0.433 3.2499 0.0 0
M  V30 16 N -1.732 2.5 0.0 0
M  V30 17 C -2.598 -1.9999 0.0 0
M  V30 18 C 0.0 -3.4999 0.0 0
M  V30 19 C -1.732 -3.4999 0.0 0
M  V30 20 C -0.7759 2.9063 0.0 0
M  V30 21 C -0.433 3.75 0.0 0
M  V30 22 C -2.598 -2.9999 0.0 0
M  V30 END ATOM
M  V30 BEGIN BOND
M  V30 1 2 1 2
M  V30 2 1 2 3
M  V30 3 1 2 4
M  V30 4 1 5 3 CFG=1
M  V30 5 1 3 6
M  V30 6 2 4 7
M  V30 7 1 4 8
M  V30 8 1 5 9
M  V30 9 1 5 10
M  V30 10 1 11 6 CFG=1
M  V30 11 1 7 12
M  V30 12 2 8 13
M  V30 13 1 9 14
M  V30 14 1 9 15
M  V30 15 1 10 16
M  V30 16 1 11 17
M  V30 17 2 12 18
M  V30 18 1 12 19
M  V30 19 1 14 20
M  V30 20 1 15 21
M  V30 21 1 17 22
M  V30 22 1 7 11
M  V30 23 1 13 18
M  V30 24 1 16 20
M  V30 25 1 16 21
M  V30 26 1 19 22
M  V30 END BOND
M  V30 BEGIN COLLECTION
M  V30 MDLV30/STERAC1 ATOMS=(2 5 11)
M  V30 END COLLECTION
M  V30 END CTAB
M  END
>  <Drug Name>
Palonosetron

>  <Carbon Count>
19

>  <SMILES String>
O=C(C(C=CC=C1CCC2)=C1[C@]2([H])C3)N3[C@H]4[N@](CC5)CC[C@H]5C4

$$$$
Codeine
Actelion Java MolfileCreator 2.0

  0  0  0  0  0  0              0 V3000
M  V30 BEGIN CTAB
M  V30 COUNTS 22 26 0 0 0
M  V30 BEGIN ATOM
M  V30 1 O 2.9446 0.9802 0.0 0
M  V30 2 C 2.6138 0.0365 0.0 0
M  V30 3 C 3.9443 0.9572 0.0 0 CFG=2
M  V30 4 C 1.732 -0.5 0.0 0
M  V30 5 C 3.409 -0.5697 0.0 0
M  V30 6 C 4.2314 -7.0E-4 0.0 0 CFG=2
M  V30 7 C 4.7573 1.5932 0.0 0 CFG=1
M  V30 8 O 0.866 0.0 0.0 0
M  V30 9 C 1.709 -1.4997 0.0 0
M  V30 10 C 3.4906 -1.5663 0.0 0
M  V30 11 C 5.1353 -0.4283 0.0 0 CFG=1
M  V30 12 C 5.2908 0.7539 0.0 0
M  V30 13 O 4.5946 2.5799 0.0 0
M  V30 14 C 5.7009 1.2624 0.0 0
M  V30 15 C 0.0 -0.5 0.0 0
M  V30 16 C 2.5633 -2.0195 0.0 0
M  V30 17 C 4.3946 -1.994 0.0 0
M  V30 18 C 5.8162 0.205 0.0 0
M  V30 19 C 5.2169 -1.425 0.0 0 CFG=1
M  V30 20 C 6.2633 0.3398 0.0 0
M  V30 21 N 6.3134 -0.6663 0.0 0
M  V30 22 C 7.2173 -1.094 0.0 0
M  V30 END ATOM
M  V30 BEGIN BOND
M  V30 1 1 1 2
M  V30 2 1 3 1 CFG=1
M  V30 3 2 2 4
M  V30 4 1 2 5
M  V30 5 1 3 6
M  V30 6 1 3 7
M  V30 7 1 4 8
M  V30 8 1 4 9
M  V30 9 2 5 10
M  V30 10 1 6 11
M  V30 11 1 6 12 CFG=3
M  V30 12 1 7 13 CFG=1
M  V30 13 1 7 14
M  V30 14 1 8 15
M  V30 15 2 9 16
M  V30 16 1 10 17
M  V30 17 1 11 18 CFG=1
M  V30 18 1 11 19
M  V30 19 1 12 20
M  V30 20 1 19 21 CFG=3
M  V30 21 1 21 22
M  V30 22 1 5 6
M  V30 23 1 10 16
M  V30 24 2 14 18
M  V30 25 1 17 19
M  V30 26 1 20 21
M  V30 END BOND
M  V30 BEGIN COLLECTION
M  V30 MDLV30/STEABS ATOMS=(5 3 6 7 11 19)
M  V30 END COLLECTION
M  V30 END CTAB
M  END
>  <Drug Name>
Codeine

>  <Carbon Count>
18

>  <SMILES String>
COC1=C2O[C@@H]3[C@]45C2=C(C=C1)C[C@@H](N(CC5)C)[C@]4([H])C=C[C@@H]3O

$$$$
Dihydrocodeine
Actelion Java MolfileCreator 2.0

  0  0  0  0  0  0              0 V3000
M  V30 BEGIN CTAB
M  V30 COUNTS 22 26 0 0 0
M  V30 BEGIN ATOM
M  V30 1 O 2.9446 0.9802 0.0 0
M  V30 2 C 2.6138 0.0365 0.0 0
M  V30 3 C 3.9443 0.9572 0.0 0 CFG=2
M  V30 4 C 1.732 -0.5 0.0 0
M  V30 5 C 3.409 -0.5697 0.0 0
M  V30 6 C 4.2314 -7.0E-4 0.0 0 CFG=2
M  V30 7 C 4.7573 1.5932 0.0 0 CFG=1
M  V30 8 O 0.866 0.0 0.0 0
M  V30 9 C 1.709 -1.4997 0.0 0
M  V30 10 C 3.4906 -1.5663 0.0 0
M  V30 11 C 5.1353 -0.4283 0.0 0 CFG=2
M  V30 12 C 5.2908 0.7539 0.0 0
M  V30 13 O 4.5946 2.5799 0.0 0
M  V30 14 C 5.7009 1.2624 0.0 0
M  V30 15 C 0.0 -0.5 0.0 0
M  V30 16 C 2.5633 -2.0195 0.0 0
M  V30 17 C 4.3946 -1.994 0.0 0
M  V30 18 C 5.2169 -1.425 0.0 0 CFG=1
M  V30 19 C 5.8162 0.205 0.0 0
M  V30 20 C 6.2633 0.3398 0.0 0
M  V30 21 N 6.3134 -0.6663 0.0 0
M  V30 22 C 7.2173 -1.094 0.0 0
M  V30 END ATOM
M  V30 BEGIN BOND
M  V30 1 1 1 2
M  V30 2 1 3 1 CFG=1
M  V30 3 2 2 4
M  V30 4 1 2 5
M  V30 5 1 3 6
M  V30 6 1 3 7
M  V30 7 1 4 8
M  V30 8 1 4 9
M  V30 9 2 5 10
M  V30 10 1 6 11
M  V30 11 1 6 12 CFG=3
M  V30 12 1 7 13 CFG=1
M  V30 13 1 7 14
M  V30 14 1 8 15
M  V30 15 2 9 16
M  V30 16 1 10 17
M  V30 17 1 11 18
M  V30 18 1 11 19 CFG=1
M  V30 19 1 12 20
M  V30 20 1 18 21 CFG=3
M  V30 21 1 21 22
M  V30 22 1 5 6
M  V30 23 1 10 16
M  V30 24 1 14 19
M  V30 25 1 17 18
M  V30 26 1 20 21
M  V30 END BOND
M  V30 BEGIN COLLECTION
M  V30 MDLV30/STEABS ATOMS=(5 3 6 7 11 18)
M  V30 END COLLECTION
M  V30 END CTAB
M  END
>  <Drug Name>
Dihydrocodeine

>  <Carbon Count>
18

>  <SMILES String>
COC1=C2O[C@@H]3[C@]45C2=C(C=C1)C[C@@H](N(CC5)C)[C@]4([H])CC[C@@H]3O

$$$$
Hydrocodone
Actelion Java MolfileCreator 2.0

  0  0  0  0  0  0              0 V3000
M  V30 BEGIN CTAB
M  V30 COUNTS 22 26 0 0 0
M  V30 BEGIN ATOM
M  V30 1 O 4.5846 2.5057 0.0 0
M  V30 2 C 4.7841 1.5258 0.0 0
M  V30 3 C 4.0353 0.8631 0.0 0 CFG=2
M  V30 4 C 5.7325 1.2086 0.0 0
M  V30 5 O 3.0417 0.9761 0.0 0
M  V30 6 C 4.2348 -0.1167 0.0 0 CFG=2
M  V30 7 C 5.8527 0.1541 0.0 0
M  V30 8 C 2.6271 0.0661 0.0 0
M  V30 9 C 3.3645 -0.6093 0.0 0
M  V30 10 C 5.1832 -0.4339 0.0 0 CFG=1
M  V30 11 C 5.2991 0.715 0.0 0
M  V30 12 C 1.732 -0.5 0.0 0
M  V30 13 C 3.5108 -1.631 0.0 0
M  V30 14 C 5.2348 -1.4648 0.0 0 CFG=1
M  V30 15 C 6.2762 0.3263 0.0 0
M  V30 16 O 0.866 0.0 0.0 0
M  V30 17 C 1.6917 -1.4991 0.0 0
M  V30 18 C 2.5368 -2.0337 0.0 0
M  V30 19 C 4.4208 -2.0456 0.0 0
M  V30 20 N 6.3372 -0.6797 0.0 0
M  V30 21 C 0.0 -0.5 0.0 0
M  V30 22 C 7.2498 -1.0886 0.0 0
M  V30 END ATOM
M  V30 BEGIN BOND
M  V30 1 2 1 2
M  V30 2 1 2 3
M  V30 3 1 2 4
M  V30 4 1 3 5 CFG=1
M  V30 5 1 3 6
M  V30 6 1 4 7
M  V30 7 1 5 8
M  V30 8 1 6 9
M  V30 9 1 6 10
M  V30 10 1 6 11 CFG=3
M  V30 11 1 8 12
M  V30 12 1 9 13
M  V30 13 1 10 14
M  V30 14 1 11 15
M  V30 15 1 12 16
M  V30 16 2 12 17
M  V30 17 2 13 18
M  V30 18 1 13 19
M  V30 19 1 14 20 CFG=3
M  V30 20 1 16 21
M  V30 21 1 20 22
M  V30 22 1 10 7 CFG=1
M  V30 23 2 8 9
M  V30 24 1 14 19
M  V30 25 1 15 20
M  V30 26 1 17 18
M  V30 END BOND
M  V30 BEGIN COLLECTION
M  V30 MDLV30/STEABS ATOMS=(4 3 6 10 14)
M  V30 END COLLECTION
M  V30 END CTAB
M  END
>  <Drug Name>
Hydrocodone

>  <Carbon Count>
18

>  <SMILES String>
COC1=C2O[C@@H]3[C@]45C2C(C=C1)C[C@@H](N(CC5)C)[C@]4([H])C=CC3=O

$$$$
Tretinoin
Actelion Java MolfileCreator 2.0

  0  0  0  0  0  0              0 V3000
M  V30 BEGIN CTAB
M  V30 COUNTS 22 22 0 0 0
M  V30 BEGIN ATOM
M  V30 1 O 12.9904 -0.75 0.0 0
M  V30 2 C 11.6913 0.0 0.0 0
M  V30 3 O 11.6913 1.5 0.0 0
M  V30 4 C 10.3923 -0.75 0.0 0
M  V30 5 C 9.0932 0.0 0.0 0
M  V30 6 C 7.7942 -0.75 0.0 0
M  V30 7 C 9.0932 1.5 0.0 0
M  V30 8 C 6.4952 0.0 0.0 0
M  V30 9 C 5.1961 -0.75 0.0 0
M  V30 10 C 3.8971 0.0 0.0 0
M  V30 11 C 2.598 -0.75 0.0 0
M  V30 12 C 3.8971 1.5 0.0 0
M  V30 13 C 1.299 0.0 0.0 0
M  V30 14 C 0.0 -0.75 0.0 0
M  V30 15 C -1.299 0.0 0.0 0
M  V30 16 C 0.0 -2.25 0.0 0
M  V30 17 C -2.598 -0.75 0.0 0
M  V30 18 C -1.299 1.5 0.0 0
M  V30 19 C -1.299 -3.0 0.0 0
M  V30 20 C 0.7499 -3.549 0.0 0
M  V30 21 C 1.4999 -2.2499 0.0 0
M  V30 22 C -2.598 -2.25 0.0 0
M  V30 END ATOM
M  V30 BEGIN BOND
M  V30 1 2 1 2
M  V30 2 1 2 3
M  V30 3 1 2 4
M  V30 4 2 4 5 CFG=2
M  V30 5 1 5 6
M  V30 6 1 5 7
M  V30 7 2 6 8 CFG=2
M  V30 8 1 8 9
M  V30 9 2 9 10 CFG=2
M  V30 10 1 10 11
M  V30 11 1 10 12
M  V30 12 2 11 13 CFG=2
M  V30 13 1 13 14
M  V30 14 2 14 15
M  V30 15 1 14 16
M  V30 16 1 15 17
M  V30 17 1 15 18
M  V30 18 1 16 19
M  V30 19 1 16 20
M  V30 20 1 16 21
M  V30 21 1 17 22
M  V30 22 1 19 22
M  V30 END BOND
M  V30 END CTAB
M  END
>  <Drug Name>
Tretinoin

>  <Carbon Count>
20

>  <SMILES String>
OC(/C=C(C)/C=C/C=C(C)/C=C/C1=C(C)CCCC1(C)C)=O

$$$$
Entacapone
Actelion Java MolfileCreator 2.0

  0  0  0  0  0  0              0 V3000
M  V30 BEGIN CTAB
M  V30 COUNTS 22 22 0 0 0
M  V30 BEGIN ATOM
M  V30 1 O 4.3301 4.0 0.0 0
M  V30 2 N 3.4641 4.5 0.0 0 CHG=1
M  V30 3 O 3.4641 5.5 0.0 0 CHG=-1
M  V30 4 C 2.598 3.9999 0.0 0
M  V30 5 C 1.732 4.5 0.0 0
M  V30 6 C 2.598 2.9999 0.0 0
M  V30 7 O 1.732 5.4999 0.0 0
M  V30 8 C 0.866 3.9999 0.0 0
M  V30 9 C 1.732 2.5 0.0 0
M  V30 10 O 0.0 4.5 0.0 0
M  V30 11 C 0.866 2.9999 0.0 0
M  V30 12 C 1.732 1.4999 0.0 0
M  V30 13 C 2.598 1.0 0.0 0
M  V30 14 C 3.4641 1.5 0.0 0
M  V30 15 C 2.598 0.0 0.0 0
M  V30 16 N 4.3301 2.0 0.0 0
M  V30 17 O 3.4641 -0.5 0.0 0
M  V30 18 N 1.732 -0.5 0.0 0
M  V30 19 C 1.732 -1.5 0.0 0
M  V30 20 C 0.866 0.0 0.0 0
M  V30 21 C 2.598 -1.9999 0.0 0
M  V30 22 C 0.0 -0.5 0.0 0
M  V30 END ATOM
M  V30 BEGIN BOND
M  V30 1 2 1 2
M  V30 2 1 2 3
M  V30 3 1 2 4
M  V30 4 2 4 5
M  V30 5 1 4 6
M  V30 6 1 5 7
M  V30 7 1 5 8
M  V30 8 2 6 9
M  V30 9 1 8 10
M  V30 10 2 8 11
M  V30 11 1 9 12
M  V30 12 2 12 13
M  V30 13 1 13 14
M  V30 14 1 13 15
M  V30 15 3 14 16
M  V30 16 2 15 17
M  V30 17 1 15 18
M  V30 18 1 18 19
M  V30 19 1 18 20
M  V30 20 1 19 21
M  V30 21 1 20 22
M  V30 22 1 9 11
M  V30 END BOND
M  V30 END CTAB
M  END
>  <Drug Name>
Entacapone

>  <Carbon Count>
14

>  <SMILES String>
CCN(C(/C(C#N)=C/C1=CC([N+]([O-])=O)=C(C(O)=C1)O)=O)CC

$$$$
Norethindrone
Actelion Java MolfileCreator 2.0

  0  0  0  0  0  0              0 V3000
M  V30 BEGIN CTAB
M  V30 COUNTS 22 25 0 0 0
M  V30 BEGIN ATOM
M  V30 1 O 1.4931 5.9671 0.0 0
M  V30 2 C 1.3886 4.9726 0.0 0
M  V30 3 C 2.1976 4.3848 0.0 0
M  V30 4 C 0.4751 4.5658 0.0 0
M  V30 5 C 2.0931 3.3903 0.0 0
M  V30 6 C 0.3705 3.5713 0.0 0
M  V30 7 C 1.1796 2.9835 0.0 0 CFG=2
M  V30 8 C 2.9021 2.8025 0.0 0
M  V30 9 C 1.075 1.989 0.0 0 CFG=2
M  V30 10 C 2.7976 1.8079 0.0 0
M  V30 11 C 1.884 1.4012 0.0 0 CFG=1
M  V30 12 C 0.1615 1.5823 0.0 0
M  V30 13 C 1.7795 0.4067 0.0 0 CFG=1
M  V30 14 C 0.057 0.5877 0.0 0
M  V30 15 C 0.866 0.0 0.0 0 CFG=2
M  V30 16 C 2.4487 -0.3364 0.0 0
M  V30 17 C 0.9705 -0.9945 0.0 0 CFG=2
M  V30 18 C 0.0 -0.5 0.0 0
M  V30 19 C 1.9487 -1.2024 0.0 0
M  V30 20 O 1.2293 -1.9604 0.0 0
M  V30 21 C 0.2274 -1.6636 0.0 0
M  V30 22 C -0.5157 -2.3327 0.0 0
M  V30 END ATOM
M  V30 BEGIN BOND
M  V30 1 2 1 2
M  V30 2 1 2 3
M  V30 3 1 2 4
M  V30 4 2 3 5
M  V30 5 1 4 6
M  V30 6 1 5 7
M  V30 7 1 5 8
M  V30 8 1 7 9
M  V30 9 1 8 10
M  V30 10 1 9 11
M  V30 11 1 9 12 CFG=3
M  V30 12 1 11 13
M  V30 13 1 12 14
M  V30 14 1 13 15
M  V30 15 1 13 16 CFG=3
M  V30 16 1 15 17
M  V30 17 1 15 18 CFG=3
M  V30 18 1 16 19
M  V30 19 1 17 20 CFG=3
M  V30 20 1 17 21
M  V30 21 3 21 22
M  V30 22 1 7 6 CFG=1
M  V30 23 1 11 10 CFG=1
M  V30 24 1 14 15
M  V30 25 1 17 19
M  V30 END BOND
M  V30 BEGIN COLLECTION
M  V30 MDLV30/STEABS ATOMS=(6 7 9 11 13 15 17)
M  V30 END COLLECTION
M  V30 END CTAB
M  END
>  <Drug Name>
Norethindrone

>  <Carbon Count>
20

>  <SMILES String>
O[C@@]1(C#C)CC[C@@]2([H])[C@]3([H])CCC4=CC(CC[C@]4([H])[C@@]3([H])CC[C@]12C)=O

$$$$
Norethynodrel
Actelion Java MolfileCreator 2.0

  0  0  0  0  0  0              0 V3000
M  V30 BEGIN CTAB
M  V30 COUNTS 22 25 0 0 0
M  V30 BEGIN ATOM
M  V30 1 O 1.4931 5.9671 0.0 0
M  V30 2 C 1.3886 4.9726 0.0 0
M  V30 3 C 2.1976 4.3848 0.0 0
M  V30 4 C 0.4751 4.5658 0.0 0
M  V30 5 C 2.0931 3.3903 0.0 0
M  V30 6 C 0.3705 3.5713 0.0 0
M  V30 7 C 1.1796 2.9835 0.0 0
M  V30 8 C 2.9021 2.8025 0.0 0
M  V30 9 C 1.075 1.989 0.0 0 CFG=2
M  V30 10 C 2.7976 1.8079 0.0 0
M  V30 11 C 1.884 1.4012 0.0 0 CFG=1
M  V30 12 C 0.1615 1.5823 0.0 0
M  V30 13 C 1.7795 0.4067 0.0 0 CFG=1
M  V30 14 C 0.057 0.5877 0.0 0
M  V30 15 C 0.866 0.0 0.0 0 CFG=2
M  V30 16 C 2.4487 -0.3364 0.0 0
M  V30 17 C 0.9705 -0.9945 0.0 0 CFG=2
M  V30 18 C 0.0 -0.5 0.0 0
M  V30 19 C 1.9487 -1.2024 0.0 0
M  V30 20 O 1.2293 -1.9604 0.0 0
M  V30 21 C 0.2274 -1.6636 0.0 0
M  V30 22 C -0.5157 -2.3327 0.0 0
M  V30 END ATOM
M  V30 BEGIN BOND
M  V30 1 2 1 2
M  V30 2 1 2 3
M  V30 3 1 2 4
M  V30 4 1 3 5
M  V30 5 1 4 6
M  V30 6 2 5 7
M  V30 7 1 5 8
M  V30 8 1 7 9
M  V30 9 1 8 10
M  V30 10 1 9 11
M  V30 11 1 9 12 CFG=3
M  V30 12 1 11 13
M  V30 13 1 12 14
M  V30 14 1 13 15
M  V30 15 1 13 16 CFG=3
M  V30 16 1 15 17
M  V30 17 1 15 18 CFG=3
M  V30 18 1 16 19
M  V30 19 1 17 20 CFG=3
M  V30 20 1 17 21
M  V30 21 3 21 22
M  V30 22 1 6 7
M  V30 23 1 11 10 CFG=1
M  V30 24 1 14 15
M  V30 25 1 17 19
M  V30 END BOND
M  V30 BEGIN COLLECTION
M  V30 MDLV30/STERAC1 ATOMS=(5 9 11 13 15 17)
M  V30 END COLLECTION
M  V30 END CTAB
M  END
>  <Drug Name>
Norethynodrel

>  <Carbon Count>
20

>  <SMILES String>
O=C1CCC2=C(CC[C@]3([H])[C@]2([H])CC[C@@]4(C)[C@@]3([H])CC[C@]4(C#C)O)C1

$$$$
Ethinyl Estradiol
Actelion Java MolfileCreator 2.0

  0  0  0  0  0  0              0 V3000
M  V30 BEGIN CTAB
M  V30 COUNTS 22 25 0 0 0
M  V30 BEGIN ATOM
M  V30 1 O 1.4931 5.9671 0.0 0
M  V30 2 C 1.3886 4.9726 0.0 0
M  V30 3 C 2.1976 4.3848 0.0 0
M  V30 4 C 0.4751 4.5658 0.0 0
M  V30 5 C 2.0931 3.3903 0.0 0
M  V30 6 C 0.3705 3.5713 0.0 0
M  V30 7 C 1.1796 2.9835 0.0 0
M  V30 8 C 2.9021 2.8025 0.0 0
M  V30 9 C 1.075 1.989 0.0 0 CFG=2
M  V30 10 C 2.7976 1.8079 0.0 0
M  V30 11 C 1.884 1.4012 0.0 0 CFG=1
M  V30 12 C 0.1615 1.5823 0.0 0
M  V30 13 C 1.7795 0.4067 0.0 0 CFG=1
M  V30 14 C 0.057 0.5877 0.0 0
M  V30 15 C 0.866 0.0 0.0 0 CFG=2
M  V30 16 C 2.4487 -0.3364 0.0 0
M  V30 17 C 0.9705 -0.9945 0.0 0 CFG=2
M  V30 18 C 0.0 -0.5 0.0 0
M  V30 19 C 1.9487 -1.2024 0.0 0
M  V30 20 O 1.2293 -1.9604 0.0 0
M  V30 21 C 0.2274 -1.6636 0.0 0
M  V30 22 C -0.5157 -2.3327 0.0 0
M  V30 END ATOM
M  V30 BEGIN BOND
M  V30 1 1 1 2
M  V30 2 2 2 3
M  V30 3 1 2 4
M  V30 4 1 3 5
M  V30 5 2 4 6
M  V30 6 2 5 7
M  V30 7 1 5 8
M  V30 8 1 7 9
M  V30 9 1 8 10
M  V30 10 1 9 11
M  V30 11 1 9 12 CFG=3
M  V30 12 1 11 13
M  V30 13 1 12 14
M  V30 14 1 13 15
M  V30 15 1 13 16 CFG=3
M  V30 16 1 15 17
M  V30 17 1 15 18 CFG=3
M  V30 18 1 16 19
M  V30 19 1 17 20 CFG=3
M  V30 20 1 17 21
M  V30 21 3 21 22
M  V30 22 1 6 7
M  V30 23 1 11 10 CFG=1
M  V30 24 1 14 15
M  V30 25 1 17 19
M  V30 END BOND
M  V30 BEGIN COLLECTION
M  V30 MDLV30/STERAC1 ATOMS=(5 9 11 13 15 17)
M  V30 END COLLECTION
M  V30 END CTAB
M  END
>  <Drug Name>
Ethinyl Estradiol

>  <Carbon Count>
20

>  <SMILES String>
OC1=CC(CC[C@]2([H])[C@]3([H])CC[C@@]4(C)[C@@]2([H])CC[C@]4(C#C)O)=C3C=C1

$$$$
Olanzapine
Actelion Java MolfileCreator 2.0

  0  0  0  0  0  0              0 V3000
M  V30 BEGIN CTAB
M  V30 COUNTS 22 25 0 0 0
M  V30 BEGIN ATOM
M  V30 1 S 2.6693 -0.6101 0.0 0
M  V30 2 C 3.673 0.5046 0.0 0
M  V30 3 C 1.299 0.0 0.0 0
M  V30 4 N 5.1562 0.281 0.0 0
M  V30 5 C 2.923 1.8036 0.0 0
M  V30 6 C 1.4558 1.4917 0.0 0
M  V30 7 C 0.0 -0.75 0.0 0
M  V30 8 C 6.2558 1.3013 0.0 0
M  V30 9 C 3.471 3.1999 0.0 0
M  V30 10 C 6.1437 2.7971 0.0 0
M  V30 11 C 7.6073 0.6504 0.0 0
M  V30 12 N 4.9044 3.642 0.0 0
M  V30 13 N 2.4508 4.2995 0.0 0
M  V30 14 C 7.3831 3.642 0.0 0
M  V30 15 C 8.8466 1.4954 0.0 0
M  V30 16 C 2.8929 5.7328 0.0 0
M  V30 17 C 0.9884 3.9657 0.0 0
M  V30 18 C 8.7345 2.9912 0.0 0
M  V30 19 C 1.8726 6.8324 0.0 0
M  V30 20 C -0.0318 5.0653 0.0 0
M  V30 21 N 0.4102 6.4986 0.0 0
M  V30 22 C -0.6099 7.5982 0.0 0
M  V30 END ATOM
M  V30 BEGIN BOND
M  V30 1 1 1 2
M  V30 2 1 1 3
M  V30 3 1 2 4
M  V30 4 2 2 5
M  V30 5 2 3 6
M  V30 6 1 3 7
M  V30 7 1 4 8
M  V30 8 1 5 9
M  V30 9 2 8 10
M  V30 10 1 8 11
M  V30 11 2 9 12
M  V30 12 1 9 13
M  V30 13 1 10 14
M  V30 14 2 11 15
M  V30 15 1 13 16
M  V30 16 1 13 17
M  V30 17 2 14 18
M  V30 18 1 16 19
M  V30 19 1 17 20
M  V30 20 1 19 21
M  V30 21 1 21 22
M  V30 22 1 5 6
M  V30 23 1 10 12
M  V30 24 1 15 18
M  V30 25 1 20 21
M  V30 END BOND
M  V30 END CTAB
M  END
>  <Drug Name>
Olanzapine

>  <Carbon Count>
17

>  <SMILES String>
CN1CCN(CC1)C2=NC3=CC=CC=C3NC4=C2C=C(S4)C

$$$$
Azatadine
Actelion Java MolfileCreator 2.0

  0  0  0  0  0  0              0 V3000
M  V30 BEGIN CTAB
M  V30 COUNTS 22 25 0 0 0
M  V30 BEGIN ATOM
M  V30 1 N -0.1642 1.2919 0.0 0
M  V30 2 C 0.7912 0.9972 0.0 0
M  V30 3 C -0.3867 2.2668 0.0 0
M  V30 4 C 0.866 0.0 0.0 0
M  V30 5 C 1.5243 1.6773 0.0 0
M  V30 6 C 0.3462 2.947 0.0 0
M  V30 7 C 1.6922 -0.5633 0.0 0
M  V30 8 C 0.0 -0.5 0.0 0
M  V30 9 C 1.3018 2.6523 0.0 0
M  V30 10 C 2.5131 1.5283 0.0 0
M  V30 11 C 2.6478 -0.2685 0.0 0
M  V30 12 C 1.4697 -1.5382 0.0 0
M  V30 13 C -0.866 0.0 0.0 0
M  V30 14 C 0.0 -1.4999 0.0 0
M  V30 15 C 3.0131 0.6623 0.0 0
M  V30 16 C 3.3808 -0.9487 0.0 0
M  V30 17 C 2.2027 -2.2184 0.0 0
M  V30 18 C -1.732 -0.4999 0.0 0
M  V30 19 C -0.866 -1.9999 0.0 0
M  V30 20 C 3.1583 -1.9236 0.0 0
M  V30 21 N -1.732 -1.4999 0.0 0
M  V30 22 C -2.598 -1.9999 0.0 0
M  V30 END ATOM
M  V30 BEGIN BOND
M  V30 1 2 1 2
M  V30 2 1 1 3
M  V30 3 1 2 4
M  V30 4 1 2 5
M  V30 5 2 3 6
M  V30 6 1 4 7
M  V30 7 2 4 8
M  V30 8 2 5 9
M  V30 9 1 5 10
M  V30 10 2 7 11
M  V30 11 1 7 12
M  V30 12 1 8 13
M  V30 13 1 8 14
M  V30 14 1 10 15
M  V30 15 1 11 16
M  V30 16 2 12 17
M  V30 17 1 13 18
M  V30 18 1 14 19
M  V30 19 2 16 20
M  V30 20 1 18 21
M  V30 21 1 21 22
M  V30 22 1 6 9
M  V30 23 1 11 15
M  V30 24 1 17 20
M  V30 25 1 19 21
M  V30 END BOND
M  V30 END CTAB
M  END
>  <Drug Name>
Azatadine

>  <Carbon Count>
20

>  <SMILES String>
CN1CC/C(CC1)=C2C3=CC=CC=C3CCC4=C\2N=CC=C4

$$$$
Desloratadine
Actelion Java MolfileCreator 2.0

  0  0  0  0  0  0              0 V3000
M  V30 BEGIN CTAB
M  V30 COUNTS 22 25 0 0 0
M  V30 BEGIN ATOM
M  V30 1 Cl 0.866 0.0 0.0 0
M  V30 2 C 0.0 -0.5 0.0 0
M  V30 3 C -0.866 0.0 0.0 0
M  V30 4 C 0.0 -1.4999 0.0 0
M  V30 5 C -1.732 -0.4999 0.0 0
M  V30 6 C -0.866 -1.9999 0.0 0
M  V30 7 C -1.732 -1.4999 0.0 0
M  V30 8 C -2.5138 0.1234 0.0 0
M  V30 9 C -2.5138 -2.1234 0.0 0
M  V30 10 C -3.4888 -0.099 0.0 0
M  V30 11 C -3.4888 -1.9009 0.0 0
M  V30 12 C -2.2913 -3.0984 0.0 0
M  V30 13 C -3.9226 -0.9999 0.0 0
M  V30 14 N -4.0521 -2.7272 0.0 0
M  V30 15 C -3.0244 -3.7785 0.0 0
M  V30 16 C -1.3357 -3.3931 0.0 0
M  V30 17 C -4.9198 -0.9252 0.0 0
M  V30 18 C -5.0493 -2.6524 0.0 0
M  V30 19 C -2.8018 -4.7535 0.0 0
M  V30 20 C -1.1132 -4.3681 0.0 0
M  V30 21 C -5.4832 -1.7515 0.0 0
M  V30 22 N -1.8463 -5.0482 0.0 0
M  V30 END ATOM
M  V30 BEGIN BOND
M  V30 1 1 1 2
M  V30 2 2 2 3
M  V30 3 1 2 4
M  V30 4 1 3 5
M  V30 5 2 4 6
M  V30 6 2 5 7
M  V30 7 1 5 8
M  V30 8 1 7 9
M  V30 9 1 8 10
M  V30 10 1 9 11
M  V30 11 2 9 12
M  V30 12 1 10 13
M  V30 13 1 11 14
M  V30 14 1 12 15
M  V30 15 1 12 16
M  V30 16 1 13 17
M  V30 17 2 14 18
M  V30 18 1 15 19
M  V30 19 1 16 20
M  V30 20 2 17 21
M  V30 21 1 19 22
M  V30 22 1 6 7
M  V30 23 2 11 13
M  V30 24 1 18 21
M  V30 25 1 20 22
M  V30 END BOND
M  V30 END CTAB
M  END
>  <Drug Name>
Desloratadine

>  <Carbon Count>
19

>  <SMILES String>
ClC1=CC=C2C(CCC3=C(/C2=C4CCNCC\4)N=CC=C3)=C1

$$$$
Nadolol
Actelion Java MolfileCreator 2.0

  0  0  0  0  0  0              0 V3000
M  V30 BEGIN CTAB
M  V30 COUNTS 22 23 0 0 0
M  V30 BEGIN ATOM
M  V30 1 O 4.3301 0.0 0.0 0
M  V30 2 C 5.1961 -0.5 0.0 0
M  V30 3 C 3.4641 -0.5 0.0 0
M  V30 4 C 5.1961 -1.5 0.0 0
M  V30 5 C 6.0621 0.0 0.0 0
M  V30 6 C 2.598 0.0 0.0 0
M  V30 7 C 6.0621 -2.0 0.0 0
M  V30 8 C 4.3301 -1.9999 0.0 0
M  V30 9 C 6.9282 -0.5 0.0 0
M  V30 10 O 2.598 1.0 0.0 0
M  V30 11 C 1.732 -0.5 0.0 0
M  V30 12 C 6.9282 -1.5 0.0 0
M  V30 13 C 6.0621 -3.0 0.0 0
M  V30 14 C 4.3301 -3.0 0.0 0 CFG=1
M  V30 15 N 0.866 0.0 0.0 0
M  V30 16 C 5.1961 -3.4999 0.0 0 CFG=2
M  V30 17 O 3.4641 -3.4999 0.0 0
M  V30 18 C 0.0 -0.5 0.0 0
M  V30 19 O 5.1961 -4.4999 0.0 0
M  V30 20 C 0.4999 -1.366 0.0 0
M  V30 21 C -0.866 -0.9999 0.0 0
M  V30 22 C -0.4999 0.366 0.0 0
M  V30 END ATOM
M  V30 BEGIN BOND
M  V30 1 1 1 2
M  V30 2 1 1 3
M  V30 3 2 2 4
M  V30 4 1 2 5
M  V30 5 1 3 6
M  V30 6 1 4 7
M  V30 7 1 4 8
M  V30 8 2 5 9
M  V30 9 1 6 10
M  V30 10 1 6 11
M  V30 11 2 7 12
M  V30 12 1 7 13
M  V30 13 1 8 14
M  V30 14 1 11 15
M  V30 15 1 13 16
M  V30 16 1 14 17 CFG=1
M  V30 17 1 15 18
M  V30 18 1 16 19 CFG=1
M  V30 19 1 18 20
M  V30 20 1 18 21
M  V30 21 1 18 22
M  V30 22 1 9 12
M  V30 23 1 14 16
M  V30 END BOND
M  V30 BEGIN COLLECTION
M  V30 MDLV30/STEABS ATOMS=(2 14 16)
M  V30 END COLLECTION
M  V30 END CTAB
M  END
>  <Drug Name>
Nadolol

>  <Carbon Count>
17

>  <SMILES String>
OC(CNC(C)(C)C)COC1=CC=CC2=C1C[C@H](O)[C@H](O)C2

$$$$
Fluoxetine
Actelion Java MolfileCreator 2.0

  0  0  0  0  0  0              0 V3000
M  V30 BEGIN CTAB
M  V30 COUNTS 22 23 0 0 0
M  V30 BEGIN ATOM
M  V30 1 F 8.2942 -1.1339 0.0 0
M  V30 2 C 7.7942 -2.0 0.0 0
M  V30 3 F 8.6602 -2.5 0.0 0
M  V30 4 F 7.2942 -2.866 0.0 0
M  V30 5 C 6.9282 -1.5 0.0 0
M  V30 6 C 6.9282 -0.5 0.0 0
M  V30 7 C 6.0621 -2.0 0.0 0
M  V30 8 C 6.0621 0.0 0.0 0
M  V30 9 C 5.1961 -1.5 0.0 0
M  V30 10 C 5.1961 -0.5 0.0 0
M  V30 11 O 4.3301 0.0 0.0 0
M  V30 12 C 3.4641 -0.5 0.0 0 CFG=2
M  V30 13 C 3.4641 -1.5 0.0 0
M  V30 14 C 2.598 0.0 0.0 0
M  V30 15 C 2.598 -1.9999 0.0 0
M  V30 16 C 4.3301 -2.0 0.0 0
M  V30 17 C 1.732 -0.5 0.0 0
M  V30 18 C 2.598 -2.9999 0.0 0
M  V30 19 C 4.3301 -3.0 0.0 0
M  V30 20 N 0.866 0.0 0.0 0
M  V30 21 C 3.4641 -3.5 0.0 0
M  V30 22 C 0.0 -0.5 0.0 0
M  V30 END ATOM
M  V30 BEGIN BOND
M  V30 1 1 1 2
M  V30 2 1 2 3
M  V30 3 1 2 4
M  V30 4 1 2 5
M  V30 5 2 5 6
M  V30 6 1 5 7
M  V30 7 1 6 8
M  V30 8 2 7 9
M  V30 9 2 8 10
M  V30 10 1 10 11
M  V30 11 1 12 11 CFG=3
M  V30 12 1 12 13
M  V30 13 1 12 14
M  V30 14 2 13 15
M  V30 15 1 13 16
M  V30 16 1 14 17
M  V30 17 1 15 18
M  V30 18 2 16 19
M  V30 19 1 17 20
M  V30 20 2 18 21
M  V30 21 1 20 22
M  V30 22 1 9 10
M  V30 23 1 19 21
M  V30 END BOND
M  V30 BEGIN COLLECTION
M  V30 MDLV30/STERAC1 ATOMS=(1 12)
M  V30 END COLLECTION
M  V30 END CTAB
M  END
>  <Drug Name>
Fluoxetine

>  <Carbon Count>
17

>  <SMILES String>
FC(F)(C1=CC=C(OC(CCNC)C2=CC=CC=C2)C=C1)F

$$$$
Betaxolol
Actelion Java MolfileCreator 2.0

  0  0  0  0  0  0              0 V3000
M  V30 BEGIN CTAB
M  V30 COUNTS 22 23 0 0 0
M  V30 BEGIN ATOM
M  V30 1 O 7.7942 -0.75 0.0 0
M  V30 2 C 9.0932 0.0 0.0 0
M  V30 3 C 6.4951 0.0 0.0 0
M  V30 4 C 10.3923 -0.75 0.0 0
M  V30 5 C 9.0932 1.4999 0.0 0
M  V30 6 C 5.1961 -0.75 0.0 0 CFG=1
M  V30 7 C 11.6913 0.0 0.0 0
M  V30 8 C 10.3923 2.2499 0.0 0
M  V30 9 O 5.1961 -2.25 0.0 0
M  V30 10 C 3.8971 0.0 0.0 0
M  V30 11 C 11.6913 1.4999 0.0 0
M  V30 12 N 2.598 -0.75 0.0 0
M  V30 13 C 12.9903 2.2499 0.0 0
M  V30 14 C 1.299 0.0 0.0 0
M  V30 15 C 14.2894 1.4999 0.0 0
M  V30 16 C 1.299 1.5 0.0 0
M  V30 17 C 0.0 -0.75 0.0 0
M  V30 18 O 15.5884 2.2499 0.0 0
M  V30 19 C 16.8874 1.4999 0.0 0
M  V30 20 C 18.1865 2.2499 0.0 0
M  V30 21 C 19.6865 2.2499 0.0 0
M  V30 22 C 18.9365 3.549 0.0 0
M  V30 END ATOM
M  V30 BEGIN BOND
M  V30 1 1 1 2
M  V30 2 1 1 3
M  V30 3 2 2 4
M  V30 4 1 2 5
M  V30 5 1 3 6
M  V30 6 1 4 7
M  V30 7 2 5 8
M  V30 8 1 6 9 CFG=1
M  V30 9 1 6 10
M  V30 10 2 7 11
M  V30 11 1 10 12
M  V30 12 1 11 13
M  V30 13 1 12 14
M  V30 14 1 13 15
M  V30 15 1 14 16
M  V30 16 1 14 17
M  V30 17 1 15 18
M  V30 18 1 18 19
M  V30 19 1 19 20
M  V30 20 1 20 21
M  V30 21 1 20 22
M  V30 22 1 8 11
M  V30 23 1 21 22
M  V30 END BOND
M  V30 BEGIN COLLECTION
M  V30 MDLV30/STERAC1 ATOMS=(1 6)
M  V30 END COLLECTION
M  V30 END CTAB
M  END
>  <Drug Name>
Betaxolol

>  <Carbon Count>
18

>  <SMILES String>
OC(CNC(C)C)COC1=CC=C(CCOCC2CC2)C=C1

$$$$
Bendamustine
Actelion Java MolfileCreator 2.0

  0  0  0  0  0  0              0 V3000
M  V30 BEGIN CTAB
M  V30 COUNTS 23 24 0 0 0
M  V30 BEGIN ATOM
M  V30 1 Cl 5.1961 -0.5 0.0 0
M  V30 2 C 4.3301 0.0 0.0 0
M  V30 3 C 3.4641 -0.5 0.0 0
M  V30 4 N 2.598 0.0 0.0 0
M  V30 5 C 2.598 1.0 0.0 0
M  V30 6 C 1.732 -0.5 0.0 0
M  V30 7 C 3.4641 1.5 0.0 0
M  V30 8 C 1.732 1.5 0.0 0
M  V30 9 C 0.866 0.0 0.0 0
M  V30 10 C 3.4641 2.5 0.0 0
M  V30 11 C 1.732 2.5 0.0 0
M  V30 12 Cl 0.0 -0.5 0.0 0
M  V30 13 N 4.2072 3.1691 0.0 0
M  V30 14 C 2.598 3.0 0.0 0
M  V30 15 C 3.8005 4.0826 0.0 0
M  V30 16 N 2.8059 3.9781 0.0 0
M  V30 17 C 4.3005 4.9487 0.0 0
M  V30 18 C 2.1368 4.7212 0.0 0
M  V30 19 C 5.3005 4.9487 0.0 0
M  V30 20 C 5.8005 5.8147 0.0 0
M  V30 21 C 6.8005 5.8147 0.0 0
M  V30 22 O 7.3005 4.9487 0.0 0
M  V30 23 O 7.3005 6.6807 0.0 0
M  V30 END ATOM
M  V30 BEGIN BOND
M  V30 1 1 1 2
M  V30 2 1 2 3
M  V30 3 1 3 4
M  V30 4 1 4 5
M  V30 5 1 4 6
M  V30 6 2 5 7
M  V30 7 1 5 8
M  V30 8 1 6 9
M  V30 9 1 7 10
M  V30 10 2 8 11
M  V30 11 1 9 12
M  V30 12 1 10 13
M  V30 13 2 10 14
M  V30 14 2 13 15
M  V30 15 1 14 16
M  V30 16 1 15 17
M  V30 17 1 16 18
M  V30 18 1 17 19
M  V30 19 1 19 20
M  V30 20 1 20 21
M  V30 21 2 21 22
M  V30 22 1 21 23
M  V30 23 1 11 14
M  V30 24 1 15 16
M  V30 END BOND
M  V30 END CTAB
M  END
>  <Drug Name>
Bendamustine

>  <Carbon Count>
16

>  <SMILES String>
O=C(O)CCCC1=NC2=CC(N(CCCl)CCCl)=CC=C2N1C

$$$$
Brinzolamide
Actelion Java MolfileCreator 2.0

  0  0  0  0  0  0              0 V3000
M  V30 BEGIN CTAB
M  V30 COUNTS 23 24 0 0 0
M  V30 BEGIN ATOM
M  V30 1 S 7.7942 -0.75 0.0 0
M  V30 2 O 7.0442 -2.049 0.0 0
M  V30 3 O 8.5442 -2.049 0.0 0
M  V30 4 N 6.4952 0.0 0.0 0
M  V30 5 C 9.0932 0.0 0.0 0
M  V30 6 C 6.4952 1.5 0.0 0
M  V30 7 C 5.1961 -0.75 0.0 0
M  V30 8 S 10.5198 -0.4635 0.0 0
M  V30 9 C 9.0932 1.5 0.0 0
M  V30 10 C 7.7942 2.25 0.0 0 CFG=1
M  V30 11 C 3.8971 0.0 0.0 0
M  V30 12 C 11.4015 0.75 0.0 0
M  V30 13 C 10.5198 1.9635 0.0 0
M  V30 14 N 7.7942 3.75 0.0 0
M  V30 15 C 2.598 -0.75 0.0 0
M  V30 16 S 12.9015 0.75 0.0 0
M  V30 17 C 9.0932 4.5 0.0 0
M  V30 18 O 1.299 0.0 0.0 0
M  V30 19 O 12.9015 -0.75 0.0 0
M  V30 20 O 12.9015 2.25 0.0 0
M  V30 21 N 14.4015 0.75 0.0 0
M  V30 22 C 9.0932 6.0 0.0 0
M  V30 23 C 0.0 -0.75 0.0 0
M  V30 END ATOM
M  V30 BEGIN BOND
M  V30 1 2 1 2
M  V30 2 2 1 3
M  V30 3 1 1 4
M  V30 4 1 1 5
M  V30 5 1 4 6
M  V30 6 1 4 7
M  V30 7 1 5 8
M  V30 8 2 5 9
M  V30 9 1 6 10
M  V30 10 1 7 11
M  V30 11 1 8 12
M  V30 12 1 9 13
M  V30 13 1 10 14 CFG=3
M  V30 14 1 11 15
M  V30 15 1 12 16
M  V30 16 1 14 17
M  V30 17 1 15 18
M  V30 18 2 16 19
M  V30 19 2 16 20
M  V30 20 1 16 21
M  V30 21 1 17 22
M  V30 22 1 18 23
M  V30 23 1 9 10
M  V30 24 2 12 13
M  V30 END BOND
M  V30 BEGIN COLLECTION
M  V30 MDLV30/STEABS ATOMS=(1 10)
M  V30 END COLLECTION
M  V30 END CTAB
M  END
>  <Drug Name>
Brinzolamide

>  <Carbon Count>
12

>  <SMILES String>
O=S(C1=C2C=C(S(=O)(N)=O)S1)(N(CCCOC)C[C@@H]2NCC)=O

$$$$
Mestranol
Actelion Java MolfileCreator 2.0

  0  0  0  0  0  0              0 V3000
M  V30 BEGIN CTAB
M  V30 COUNTS 23 26 0 0 0
M  V30 BEGIN ATOM
M  V30 1 O 0.866 0.0 0.0 0
M  V30 2 C 1.732 -0.5 0.0 0
M  V30 3 C 0.0 -0.5 0.0 0
M  V30 4 C 2.598 0.0 0.0 0
M  V30 5 C 1.732 -1.4999 0.0 0
M  V30 6 C 3.4641 -0.4999 0.0 0
M  V30 7 C 2.598 -1.9999 0.0 0
M  V30 8 C 3.4641 -1.4999 0.0 0
M  V30 9 C 4.3301 0.0 0.0 0
M  V30 10 C 4.3301 -2.0 0.0 0 CFG=2
M  V30 11 C 5.1961 -0.5 0.0 0
M  V30 12 C 5.1961 -1.5 0.0 0 CFG=1
M  V30 13 C 4.3301 -3.0 0.0 0
M  V30 14 C 6.0621 -2.0 0.0 0 CFG=1
M  V30 15 C 5.1961 -3.5 0.0 0
M  V30 16 C 6.0621 -3.0 0.0 0 CFG=2
M  V30 17 C 7.0132 -1.6909 0.0 0
M  V30 18 C 7.0132 -3.309 0.0 0 CFG=2
M  V30 19 C 6.1667 -3.9945 0.0 0
M  V30 20 C 7.601 -2.4999 0.0 0
M  V30 21 O 8.0009 -3.4654 0.0 0
M  V30 22 C 7.3222 -4.26 0.0 0
M  V30 23 C 7.6312 -5.2111 0.0 0
M  V30 END ATOM
M  V30 BEGIN BOND
M  V30 1 1 1 2
M  V30 2 1 1 3
M  V30 3 2 2 4
M  V30 4 1 2 5
M  V30 5 1 4 6
M  V30 6 2 5 7
M  V30 7 2 6 8
M  V30 8 1 6 9
M  V30 9 1 8 10
M  V30 10 1 9 11
M  V30 11 1 10 12
M  V30 12 1 10 13 CFG=3
M  V30 13 1 12 14
M  V30 14 1 13 15
M  V30 15 1 14 16
M  V30 16 1 14 17 CFG=3
M  V30 17 1 16 18
M  V30 18 1 16 19 CFG=3
M  V30 19 1 17 20
M  V30 20 1 18 21 CFG=3
M  V30 21 1 18 22
M  V30 22 3 22 23
M  V30 23 1 7 8
M  V30 24 1 12 11 CFG=1
M  V30 25 1 15 16
M  V30 26 1 18 20
M  V30 END BOND
M  V30 BEGIN COLLECTION
M  V30 MDLV30/STERAC1 ATOMS=(5 10 12 14 16 18)
M  V30 END COLLECTION
M  V30 END CTAB
M  END
>  <Drug Name>
Mestranol

>  <Carbon Count>
21

>  <SMILES String>
C[C@]1(CC[C@@]23[H])[C@](CC[C@]1(C#C)O)([H])[C@]2([H])CCC4=C3C=CC(OC)=C4

$$$$
Levonorgestrel
Actelion Java MolfileCreator 2.0

  0  0  0  0  0  0              0 V3000
M  V30 BEGIN CTAB
M  V30 COUNTS 23 26 0 0 0
M  V30 BEGIN ATOM
M  V30 1 O 10.8932 2.9303 0.0 0
M  V30 2 C 9.5136 2.3161 0.0 0
M  V30 3 C 9.3558 0.8142 0.0 0
M  V30 4 C 8.2919 3.2037 0.0 0
M  V30 5 C 7.9762 0.1999 0.0 0
M  V30 6 C 6.9123 2.5895 0.0 0
M  V30 7 C 6.7544 1.0876 0.0 0 CFG=2
M  V30 8 C 7.8183 -1.3019 0.0 0
M  V30 9 C 5.3748 0.4733 0.0 0 CFG=2
M  V30 10 C 6.4387 -1.9161 0.0 0
M  V30 11 C 5.217 -1.0284 0.0 0 CFG=1
M  V30 12 C 4.1531 1.361 0.0 0
M  V30 13 C 3.8374 -1.6427 0.0 0 CFG=1
M  V30 14 C 2.7735 0.7468 0.0 0
M  V30 15 C 2.6156 -0.755 0.0 0 CFG=2
M  V30 16 C 3.3707 -3.0789 0.0 0
M  V30 17 C 1.3939 -1.6427 0.0 0 CFG=2
M  V30 18 C 1.4033 0.0961 0.0 0
M  V30 19 C 1.8605 -3.0789 0.0 0
M  V30 20 O 0.9667 -0.3434 0.0 0
M  V30 21 C -0.0423 -1.176 0.0 0
M  V30 22 C 1.3078 1.5101 0.0 0
M  V30 23 C -1.4785 -0.7093 0.0 0
M  V30 END ATOM
M  V30 BEGIN BOND
M  V30 1 2 1 2
M  V30 2 1 2 3
M  V30 3 1 2 4
M  V30 4 2 3 5
M  V30 5 1 4 6
M  V30 6 1 5 7
M  V30 7 1 5 8
M  V30 8 1 7 9
M  V30 9 1 8 10
M  V30 10 1 9 11
M  V30 11 1 9 12 CFG=3
M  V30 12 1 11 13
M  V30 13 1 12 14
M  V30 14 1 13 15
M  V30 15 1 13 16 CFG=3
M  V30 16 1 15 17
M  V30 17 1 15 18 CFG=3
M  V30 18 1 16 19
M  V30 19 1 17 20 CFG=3
M  V30 20 1 17 21
M  V30 21 1 18 22
M  V30 22 3 21 23
M  V30 23 1 7 6 CFG=1
M  V30 24 1 11 10 CFG=1
M  V30 25 1 14 15
M  V30 26 1 17 19
M  V30 END BOND
M  V30 BEGIN COLLECTION
M  V30 MDLV30/STEABS ATOMS=(6 7 9 11 13 15 17)
M  V30 END COLLECTION
M  V30 END CTAB
M  END
>  <Drug Name>
Levonorgestrel

>  <Carbon Count>
21

>  <SMILES String>
O=C1CC[C@@]2([H])C(CC[C@]3([H])[C@]2([H])CC[C@@]4(CC)[C@@]3([H])CC[C@]4(C#C)O)=C1

$$$$
Norgestrel
Actelion Java MolfileCreator 2.0

  0  0  0  0  0  0              0 V3000
M  V30 BEGIN CTAB
M  V30 COUNTS 23 26 0 0 0
M  V30 BEGIN ATOM
M  V30 1 O 10.8932 2.9303 0.0 0
M  V30 2 C 9.5136 2.3161 0.0 0
M  V30 3 C 9.3558 0.8142 0.0 0
M  V30 4 C 8.2919 3.2037 0.0 0
M  V30 5 C 7.9762 0.1999 0.0 0
M  V30 6 C 6.9123 2.5895 0.0 0
M  V30 7 C 6.7544 1.0876 0.0 0
M  V30 8 C 7.8183 -1.3019 0.0 0
M  V30 9 C 5.3748 0.4733 0.0 0
M  V30 10 C 6.4387 -1.9161 0.0 0
M  V30 11 C 5.217 -1.0284 0.0 0
M  V30 12 C 4.1531 1.361 0.0 0
M  V30 13 C 3.8374 -1.6427 0.0 0
M  V30 14 C 2.7735 0.7468 0.0 0
M  V30 15 C 2.6156 -0.755 0.0 0
M  V30 16 C 3.3707 -3.0789 0.0 0
M  V30 17 C 1.3939 -1.6427 0.0 0
M  V30 18 C 1.4033 0.0961 0.0 0
M  V30 19 C 1.8605 -3.0789 0.0 0
M  V30 20 O 0.9667 -0.3434 0.0 0
M  V30 21 C -0.0423 -1.176 0.0 0
M  V30 22 C 1.3078 1.5101 0.0 0
M  V30 23 C -1.4785 -0.7093 0.0 0
M  V30 END ATOM
M  V30 BEGIN BOND
M  V30 1 2 1 2
M  V30 2 1 2 3
M  V30 3 1 2 4
M  V30 4 2 3 5
M  V30 5 1 4 6
M  V30 6 1 5 7
M  V30 7 1 5 8
M  V30 8 1 7 9
M  V30 9 1 8 10
M  V30 10 1 9 11
M  V30 11 1 9 12
M  V30 12 1 11 13
M  V30 13 1 12 14
M  V30 14 1 13 15
M  V30 15 1 13 16
M  V30 16 1 15 17
M  V30 17 1 15 18
M  V30 18 1 16 19
M  V30 19 1 17 20
M  V30 20 1 17 21
M  V30 21 1 18 22
M  V30 22 3 21 23
M  V30 23 1 6 7
M  V30 24 1 10 11
M  V30 25 1 14 15
M  V30 26 1 17 19
M  V30 END BOND
M  V30 END CTAB
M  END
>  <Drug Name>
Norgestrel

>  <Carbon Count>
21

>  <SMILES String>
O=C1CC[C@@]2([H])C(CC[C@]3([H])[C@]2([H])CC[C@@]4(CC)[C@@]3([H])CCC4(C#C)O)=C1

$$$$
Desogestrel
Actelion Java MolfileCreator 2.0

  0  0  0  0  0  0              0 V3000
M  V30 BEGIN CTAB
M  V30 COUNTS 23 26 0 0 0
M  V30 BEGIN ATOM
M  V30 1 O 1.4346 0.4671 0.0 0
M  V30 2 C 2.7735 0.7468 0.0 0 CFG=2
M  V30 3 C 1.6512 1.7573 0.0 0
M  V30 4 C 2.6156 -0.755 0.0 0 CFG=2
M  V30 5 C 4.2506 1.0607 0.0 0
M  V30 6 C 0.5289 2.7677 0.0 0
M  V30 7 C 3.9952 -1.3693 0.0 0 CFG=1
M  V30 8 C 1.3939 -1.6427 0.0 0
M  V30 9 C 1.2723 -0.1307 0.0 0
M  V30 10 C 5.0057 -0.247 0.0 0
M  V30 11 C 4.1531 -2.8712 0.0 0 CFG=1
M  V30 12 C 1.5517 -3.1446 0.0 0
M  V30 13 C 0.0 -0.755 0.0 0
M  V30 14 C 2.9313 -3.7588 0.0 0 CFG=2
M  V30 15 C 5.5327 -3.4854 0.0 0
M  V30 16 C 0.33 -4.0322 0.0 0
M  V30 17 C 3.0892 -5.2607 0.0 0 CFG=2
M  V30 18 C 5.6905 -4.9873 0.0 0
M  V30 19 C 4.4688 -5.8749 0.0 0
M  V30 20 C 1.8674 -6.1483 0.0 0
M  V30 21 C 4.6266 -7.3768 0.0 0
M  V30 22 C 2.0253 -7.6502 0.0 0
M  V30 23 C 3.4049 -8.2645 0.0 0
M  V30 END ATOM
M  V30 BEGIN BOND
M  V30 1 1 2 1 CFG=1
M  V30 2 1 2 3
M  V30 3 1 2 4
M  V30 4 1 2 5
M  V30 5 3 3 6
M  V30 6 1 4 7
M  V30 7 1 4 8
M  V30 8 1 4 9 CFG=1
M  V30 9 1 5 10
M  V30 10 1 7 11
M  V30 11 1 8 12
M  V30 12 1 9 13
M  V30 13 1 11 14
M  V30 14 1 11 15 CFG=3
M  V30 15 2 12 16
M  V30 16 1 14 17
M  V30 17 1 15 18
M  V30 18 1 17 19
M  V30 19 1 17 20 CFG=3
M  V30 20 2 19 21
M  V30 21 1 20 22
M  V30 22 1 21 23
M  V30 23 1 7 10 CFG=1
M  V30 24 1 14 12 CFG=1
M  V30 25 1 18 19
M  V30 26 1 22 23
M  V30 END BOND
M  V30 BEGIN COLLECTION
M  V30 MDLV30/STEABS ATOMS=(6 2 4 7 11 14 17)
M  V30 END COLLECTION
M  V30 END CTAB
M  END
>  <Drug Name>
Desogestrel

>  <Carbon Count>
22

>  <SMILES String>
C#C[C@@]4(O)[C@@]2([C@H]([C@@H]3CC/C1=C/CCC[C@@H]1[C@H]3C(=C)\C2)CC4)CC

$$$$

Actelion Java MolfileCreator 2.0

  0  0  0  0  0  0              0 V3000
M  V30 BEGIN CTAB
M  V30 COUNTS 0 0 0 0 0
M  V30 BEGIN ATOM
M  V30 END ATOM
M  V30 BEGIN BOND
M  V30 END BOND
M  V30 END CTAB
M  END
>  <Drug Name>
Dienogest?

>  <Carbon Count>
20

>  <SMILES String>
O=C1CCC2=C3[C@@]([C@@](CC[C@@]4(O)CC#N)([H])[C@]4(C)CC3)([H])CCC2=C1

$$$$
Oxycodone
Actelion Java MolfileCreator 2.0

  0  0  0  0  0  0              0 V3000
M  V30 BEGIN CTAB
M  V30 COUNTS 23 27 0 0 0
M  V30 BEGIN ATOM
M  V30 1 O 4.5846 2.5057 0.0 0
M  V30 2 C 4.7841 1.5258 0.0 0
M  V30 3 C 4.0353 0.8631 0.0 0 CFG=2
M  V30 4 C 5.7325 1.2086 0.0 0
M  V30 5 O 3.0417 0.9761 0.0 0
M  V30 6 C 4.2348 -0.1167 0.0 0 CFG=2
M  V30 7 C 5.8819 0.1675 0.0 0
M  V30 8 C 2.6271 0.0661 0.0 0
M  V30 9 C 3.3645 -0.6093 0.0 0
M  V30 10 C 5.1832 -0.4339 0.0 0 CFG=2
M  V30 11 C 5.3053 0.7155 0.0 0
M  V30 12 C 1.732 -0.5 0.0 0
M  V30 13 C 3.5108 -1.631 0.0 0
M  V30 14 O 5.9937 -0.7959 0.0 0
M  V30 15 C 5.2348 -1.4648 0.0 0 CFG=1
M  V30 16 C 6.3201 0.3409 0.0 0
M  V30 17 O 0.866 0.0 0.0 0
M  V30 18 C 1.6917 -1.4991 0.0 0
M  V30 19 C 2.5368 -2.0337 0.0 0
M  V30 20 C 4.4208 -2.0456 0.0 0
M  V30 21 N 6.4023 -0.6577 0.0 0
M  V30 22 C 0.0 -0.5 0.0 0
M  V30 23 C 7.2498 -1.0886 0.0 0
M  V30 END ATOM
M  V30 BEGIN BOND
M  V30 1 2 1 2
M  V30 2 1 2 3
M  V30 3 1 2 4
M  V30 4 1 3 5 CFG=1
M  V30 5 1 3 6
M  V30 6 1 4 7
M  V30 7 1 5 8
M  V30 8 1 6 9
M  V30 9 1 6 10
M  V30 10 1 6 11 CFG=3
M  V30 11 1 8 12
M  V30 12 1 9 13
M  V30 13 1 10 14 CFG=3
M  V30 14 1 10 15
M  V30 15 1 11 16
M  V30 16 1 12 17
M  V30 17 2 12 18
M  V30 18 2 13 19
M  V30 19 1 13 20
M  V30 20 1 15 21 CFG=3
M  V30 21 1 17 22
M  V30 22 1 21 23
M  V30 23 1 7 10
M  V30 24 2 8 9
M  V30 25 1 15 20
M  V30 26 1 16 21
M  V30 27 1 18 19
M  V30 END BOND
M  V30 BEGIN COLLECTION
M  V30 MDLV30/STEABS ATOMS=(4 3 6 10 15)
M  V30 END COLLECTION
M  V30 END CTAB
M  END
>  <Drug Name>
Oxycodone

>  <Carbon Count>
18

>  <SMILES String>
COC(C1=C2[C@@]34[C@H]5O1)=CC=C2C[C@@H](N(CC4)C)[C@]3(O)CCC5=O

$$$$
Saxagliptin
Actelion Java MolfileCreator 2.0

  0  0  0  0  0  0              0 V3000
M  V30 BEGIN CTAB
M  V30 COUNTS 23 27 0 0 0
M  V30 BEGIN ATOM
M  V30 1 O 2.6295 0.0145 0.0 0
M  V30 2 C 1.6834 0.3386 0.0 0
M  V30 3 N 1.4911 1.32 0.0 0
M  V30 4 C 0.9297 -0.3185 0.0 0 CFG=1
M  V30 5 C 2.172 2.0524 0.0 0 CFG=2
M  V30 6 C 0.5841 1.7412 0.0 0 CFG=2
M  V30 7 N 1.1221 -1.2998 0.0 0
M  V30 8 C 0.0 0.0 0.0 0
M  V30 9 C 3.1647 1.932 0.0 0
M  V30 10 C 1.6858 2.9262 0.0 0
M  V30 11 C 0.7045 2.7339 0.0 0 CFG=2
M  V30 12 C -0.2153 2.3418 0.0 0
M  V30 13 C 0.0172 1.0847 0.0 0
M  V30 14 C -0.7406 -0.2764 0.0 0
M  V30 15 C -0.5768 -0.749 0.0 0
M  V30 16 N 4.1574 1.8117 0.0 0
M  V30 17 C -0.9986 1.4291 0.0 0
M  V30 18 C -1.9199 0.0655 0.0 0
M  V30 19 C -1.5588 -0.4611 0.0 0
M  V30 20 O -1.029 2.4286 0.0 0
M  V30 21 C -1.8677 1.1055 0.0 0
M  V30 22 C -1.461 0.7879 0.0 0
M  V30 23 C -2.4708 -0.7059 0.0 0
M  V30 END ATOM
M  V30 BEGIN BOND
M  V30 1 2 1 2
M  V30 2 1 2 3
M  V30 3 1 2 4
M  V30 4 1 3 5
M  V30 5 1 6 3 CFG=1
M  V30 6 1 4 7 CFG=1
M  V30 7 1 4 8
M  V30 8 1 5 9 CFG=1
M  V30 9 1 5 10
M  V30 10 1 6 11
M  V30 11 1 6 12
M  V30 12 1 8 13
M  V30 13 1 8 14
M  V30 14 1 8 15
M  V30 15 3 9 16
M  V30 16 1 13 17
M  V30 17 1 14 18
M  V30 18 1 15 19
M  V30 19 1 17 20
M  V30 20 1 17 21
M  V30 21 1 17 22
M  V30 22 1 18 23
M  V30 23 1 11 10 CFG=1
M  V30 24 1 11 12
M  V30 25 1 18 21
M  V30 26 1 19 22
M  V30 27 1 19 23
M  V30 END BOND
M  V30 BEGIN COLLECTION
M  V30 MDLV30/STEABS ATOMS=(4 4 5 6 11)
M  V30 END COLLECTION
M  V30 END CTAB
M  END
>  <Drug Name>
Saxagliptin

>  <Carbon Count>
18

>  <SMILES String>
N[C@@H](C12CC3CC(C2)CC(C3)(C1)O)C(N4[C@H]5C[C@H]5C[C@H]4C#N)=O

$$$$
Bisoprolol
Actelion Java MolfileCreator 2.0

  0  0  0  0  0  0              0 V3000
M  V30 BEGIN CTAB
M  V30 COUNTS 23 23 0 0 0
M  V30 BEGIN ATOM
M  V30 1 O 7.7942 -0.75 0.0 0
M  V30 2 C 9.0932 0.0 0.0 0
M  V30 3 C 6.4951 0.0 0.0 0
M  V30 4 C 10.3923 -0.75 0.0 0
M  V30 5 C 9.0932 1.4999 0.0 0
M  V30 6 C 5.1961 -0.75 0.0 0 CFG=1
M  V30 7 C 11.6913 0.0 0.0 0
M  V30 8 C 10.3923 2.2499 0.0 0
M  V30 9 O 5.1961 -2.25 0.0 0
M  V30 10 C 3.8971 0.0 0.0 0
M  V30 11 C 11.6913 1.4999 0.0 0
M  V30 12 N 2.598 -0.75 0.0 0
M  V30 13 C 12.9903 2.2499 0.0 0
M  V30 14 C 1.299 0.0 0.0 0
M  V30 15 O 14.2894 1.4999 0.0 0
M  V30 16 C 1.299 1.5 0.0 0
M  V30 17 C 0.0 -0.75 0.0 0
M  V30 18 C 15.5884 2.2499 0.0 0
M  V30 19 C 16.8874 1.4999 0.0 0
M  V30 20 O 18.1865 2.2499 0.0 0
M  V30 21 C 19.4855 1.4999 0.0 0
M  V30 22 C 19.4855 0.0 0.0 0
M  V30 23 C 20.7846 2.2499 0.0 0
M  V30 END ATOM
M  V30 BEGIN BOND
M  V30 1 1 1 2
M  V30 2 1 1 3
M  V30 3 2 2 4
M  V30 4 1 2 5
M  V30 5 1 3 6
M  V30 6 1 4 7
M  V30 7 2 5 8
M  V30 8 1 6 9 CFG=1
M  V30 9 1 6 10
M  V30 10 2 7 11
M  V30 11 1 10 12
M  V30 12 1 11 13
M  V30 13 1 12 14
M  V30 14 1 13 15
M  V30 15 1 14 16
M  V30 16 1 14 17
M  V30 17 1 15 18
M  V30 18 1 18 19
M  V30 19 1 19 20
M  V30 20 1 20 21
M  V30 21 1 21 22
M  V30 22 1 21 23
M  V30 23 1 8 11
M  V30 END BOND
M  V30 BEGIN COLLECTION
M  V30 MDLV30/STERAC1 ATOMS=(1 6)
M  V30 END COLLECTION
M  V30 END CTAB
M  END
>  <Drug Name>
Bisoprolol

>  <Carbon Count>
18

>  <SMILES String>
OC(COC1=CC=C(C=C1)COCCOC(C)C)CNC(C)C

$$$$
Cilastatin
Actelion Java MolfileCreator 2.0

  0  0  0  0  0  0              0 V3000
M  V30 BEGIN CTAB
M  V30 COUNTS 24 24 0 0 0
M  V30 BEGIN ATOM
M  V30 1 S 7.7942 -6.75 0.0 0
M  V30 2 C 9.0932 -7.5 0.0 0
M  V30 3 C 7.7942 -5.25 0.0 0
M  V30 4 C 9.0932 -9.0 0.0 0 CFG=2
M  V30 5 C 6.4952 -4.5 0.0 0
M  V30 6 N 7.7942 -9.75 0.0 0
M  V30 7 C 10.3923 -9.75 0.0 0
M  V30 8 C 6.4952 -3.0 0.0 0
M  V30 9 O 10.3923 -11.25 0.0 0
M  V30 10 O 11.6913 -9.0 0.0 0
M  V30 11 C 5.1961 -2.25 0.0 0
M  V30 12 C 5.1961 -0.75 0.0 0
M  V30 13 C 3.8971 0.0 0.0 0
M  V30 14 N 2.598 -0.75 0.0 0
M  V30 15 C 3.8971 1.5 0.0 0
M  V30 16 C 1.299 0.0 0.0 0
M  V30 17 O 5.1961 2.25 0.0 0
M  V30 18 O 2.598 2.25 0.0 0
M  V30 19 O 1.299 1.5 0.0 0
M  V30 20 C 0.0 -0.75 0.0 0 CFG=2
M  V30 21 C -1.5 -0.75 0.0 0
M  V30 22 C -0.75 -2.049 0.0 0
M  V30 23 C -2.2499 0.549 0.0 0
M  V30 24 C -2.9999 -0.75 0.0 0
M  V30 END ATOM
M  V30 BEGIN BOND
M  V30 1 1 1 2
M  V30 2 1 1 3
M  V30 3 1 2 4
M  V30 4 1 3 5
M  V30 5 1 4 6 CFG=1
M  V30 6 1 4 7
M  V30 7 1 5 8
M  V30 8 2 7 9
M  V30 9 1 7 10
M  V30 10 1 8 11
M  V30 11 1 11 12
M  V30 12 2 12 13
M  V30 13 1 13 14
M  V30 14 1 13 15
M  V30 15 1 14 16
M  V30 16 2 15 17
M  V30 17 1 15 18
M  V30 18 2 16 19
M  V30 19 1 20 16 CFG=1
M  V30 20 1 20 21
M  V30 21 1 20 22
M  V30 22 1 21 23
M  V30 23 1 21 24
M  V30 24 1 21 22
M  V30 END BOND
M  V30 BEGIN COLLECTION
M  V30 MDLV30/STEABS ATOMS=(2 4 20)
M  V30 END COLLECTION
M  V30 END CTAB
M  END
>  <Drug Name>
Cilastatin

>  <Carbon Count>
16

>  <SMILES String>
O=C([C@H](N)CSCCCC/C=C(NC([C@H]1CC1(C)C)=O)/C(O)=O)O

$$$$
Naloxone
Actelion Java MolfileCreator 2.0

  0  0  0  0  0  0              0 V3000
M  V30 BEGIN CTAB
M  V30 COUNTS 24 28 0 0 0
M  V30 BEGIN ATOM
M  V30 1 O 6.2063 -0.446 0.0 0
M  V30 2 C 5.2954 -0.0336 0.0 0
M  V30 3 C 5.197 0.9614 0.0 0 CFG=1
M  V30 4 C 4.4827 -0.6163 0.0 0
M  V30 5 O 5.8708 1.7004 0.0 0
M  V30 6 C 4.2861 1.3739 0.0 0 CFG=1
M  V30 7 C 3.5515 -0.1274 0.0 0
M  V30 8 C 5.3762 2.5695 0.0 0
M  V30 9 C 4.3968 2.3677 0.0 0
M  V30 10 C 3.4734 0.7912 0.0 0 CFG=1
M  V30 11 C 4.3334 0.0186 0.0 0
M  V30 12 C 5.4419 3.6266 0.0 0
M  V30 13 C 3.4831 2.8478 0.0 0
M  V30 14 O 2.7052 0.3464 0.0 0
M  V30 15 C 2.6077 1.3533 0.0 0 CFG=2
M  V30 16 C 3.4351 -0.5841 0.0 0
M  V30 17 O 6.3545 4.0355 0.0 0
M  V30 18 C 4.6558 4.2447 0.0 0
M  V30 19 C 3.7274 3.873 0.0 0
M  V30 20 C 2.6139 2.3532 0.0 0
M  V30 21 N 2.5777 -0.0656 0.0 0
M  V30 22 C 1.732 -0.5 0.0 0
M  V30 23 C 0.866 0.0 0.0 0
M  V30 24 C 0.0 -0.5 0.0 0
M  V30 END ATOM
M  V30 BEGIN BOND
M  V30 1 2 1 2
M  V30 2 1 2 3
M  V30 3 1 2 4
M  V30 4 1 3 5 CFG=3
M  V30 5 1 3 6
M  V30 6 1 4 7
M  V30 7 1 5 8
M  V30 8 1 6 9
M  V30 9 1 6 10
M  V30 10 1 6 11 CFG=1
M  V30 11 1 8 12
M  V30 12 1 9 13
M  V30 13 1 10 14 CFG=1
M  V30 14 1 10 15
M  V30 15 1 11 16
M  V30 16 1 12 17
M  V30 17 2 12 18
M  V30 18 2 13 19
M  V30 19 1 13 20
M  V30 20 1 15 21 CFG=1
M  V30 21 1 21 22
M  V30 22 1 22 23
M  V30 23 2 23 24
M  V30 24 1 7 10
M  V30 25 2 8 9
M  V30 26 1 15 20
M  V30 27 1 16 21
M  V30 28 1 18 19
M  V30 END BOND
M  V30 BEGIN COLLECTION
M  V30 MDLV30/STERAC1 ATOMS=(4 3 6 10 15)
M  V30 END COLLECTION
M  V30 END CTAB
M  END
>  <Drug Name>
Naloxone

>  <Carbon Count>
19

>  <SMILES String>
O=C1[C@H]2[C@]3(CCN(CC=C)[C@H](C4)[C@]3(O)CC1)C5=C4C=CC(O)=C5O2

$$$$
Clemastine
Actelion Java MolfileCreator 2.0

  0  0  0  0  0  0              0 V3000
M  V30 BEGIN CTAB
M  V30 COUNTS 24 26 0 0 0
M  V30 BEGIN ATOM
M  V30 1 Cl 6.9282 1.4999 0.0 0
M  V30 2 C 6.0621 0.9999 0.0 0
M  V30 3 C 5.1961 1.4999 0.0 0
M  V30 4 C 6.0621 0.0 0.0 0
M  V30 5 C 4.3301 0.9999 0.0 0
M  V30 6 C 5.1961 -0.5 0.0 0
M  V30 7 C 4.3301 0.0 0.0 0
M  V30 8 C 3.4641 -0.5 0.0 0 CFG=2
M  V30 9 O 2.598 0.0 0.0 0
M  V30 10 C 3.4641 -1.5 0.0 0
M  V30 11 C 3.4641 0.5 0.0 0
M  V30 12 C 1.732 -0.5 0.0 0
M  V30 13 C 2.598 -2.0 0.0 0
M  V30 14 C 4.3301 -1.9999 0.0 0
M  V30 15 C 0.866 0.0 0.0 0
M  V30 16 C 2.598 -3.0 0.0 0
M  V30 17 C 4.3301 -2.9999 0.0 0
M  V30 18 C 0.0 -0.5 0.0 0 CFG=2
M  V30 19 C 3.4641 -3.4999 0.0 0
M  V30 20 N -0.9135 -0.0932 0.0 0
M  V30 21 C -0.1045 -1.4945 0.0 0
M  V30 22 C -1.5826 -0.8364 0.0 0
M  V30 23 C -1.1214 0.8848 0.0 0
M  V30 24 C -1.0826 -1.7024 0.0 0
M  V30 END ATOM
M  V30 BEGIN BOND
M  V30 1 1 1 2
M  V30 2 2 2 3
M  V30 3 1 2 4
M  V30 4 1 3 5
M  V30 5 2 4 6
M  V30 6 2 5 7
M  V30 7 1 7 8
M  V30 8 1 8 9
M  V30 9 1 8 10
M  V30 10 1 8 11 CFG=3
M  V30 11 1 9 12
M  V30 12 2 10 13
M  V30 13 1 10 14
M  V30 14 1 12 15
M  V30 15 1 13 16
M  V30 16 2 14 17
M  V30 17 1 18 15 CFG=1
M  V30 18 2 16 19
M  V30 19 1 18 20
M  V30 20 1 18 21
M  V30 21 1 20 22
M  V30 22 1 20 23
M  V30 23 1 21 24
M  V30 24 1 6 7
M  V30 25 1 17 19
M  V30 26 1 22 24
M  V30 END BOND
M  V30 BEGIN COLLECTION
M  V30 MDLV30/STEABS ATOMS=(2 8 18)
M  V30 END COLLECTION
M  V30 END CTAB
M  END
>  <Drug Name>
Clemastine

>  <Carbon Count>
21

>  <SMILES String>
CN(CCC1)[C@H]1CCO[C@@](C2=CC=CC=C2)(C)C3=CC=C(Cl)C=C3

$$$$
Ampicillin
Actelion Java MolfileCreator 2.0

  0  0  0  0  0  0              0 V3000
M  V30 BEGIN CTAB
M  V30 COUNTS 24 26 0 0 0
M  V30 BEGIN ATOM
M  V30 1 S 5.5058 -3.6968 0.0 0
M  V30 2 C 6.9062 -4.2343 0.0 0
M  V30 3 C 5.5843 -2.1988 0.0 0 CFG=1
M  V30 4 C 7.8502 -3.0686 0.0 0 CFG=1
M  V30 5 C 6.518 -5.6832 0.0 0
M  V30 6 C 7.9669 -5.295 0.0 0
M  V30 7 N 7.0332 -1.8106 0.0 0
M  V30 8 C 5.1961 -0.75 0.0 0 CFG=1
M  V30 9 C 9.3481 -3.1471 0.0 0
M  V30 10 C 6.645 -0.3617 0.0 0
M  V30 11 N 3.8971 0.0 0.0 0
M  V30 12 O 10.0291 -4.4836 0.0 0
M  V30 13 O 10.1651 -1.8891 0.0 0
M  V30 14 O 7.395 0.9372 0.0 0
M  V30 15 C 2.598 -0.75 0.0 0
M  V30 16 O 2.598 -2.25 0.0 0
M  V30 17 C 1.299 0.0 0.0 0 CFG=2
M  V30 18 N 1.299 1.5 0.0 0
M  V30 19 C 0.0 -0.75 0.0 0
M  V30 20 C -1.299 0.0 0.0 0
M  V30 21 C 0.0 -2.25 0.0 0
M  V30 22 C -2.598 -0.75 0.0 0
M  V30 23 C -1.299 -3.0 0.0 0
M  V30 24 C -2.598 -2.25 0.0 0
M  V30 END ATOM
M  V30 BEGIN BOND
M  V30 1 1 1 2
M  V30 2 1 3 1 CFG=3
M  V30 3 1 2 4
M  V30 4 1 2 5
M  V30 5 1 2 6
M  V30 6 1 3 7
M  V30 7 1 3 8
M  V30 8 1 4 9 CFG=1
M  V30 9 1 7 10
M  V30 10 1 8 11 CFG=3
M  V30 11 2 9 12
M  V30 12 1 9 13
M  V30 13 2 10 14
M  V30 14 1 11 15
M  V30 15 2 15 16
M  V30 16 1 15 17
M  V30 17 1 17 18 CFG=1
M  V30 18 1 17 19
M  V30 19 2 19 20
M  V30 20 1 19 21
M  V30 21 1 20 22
M  V30 22 2 21 23
M  V30 23 2 22 24
M  V30 24 1 4 7
M  V30 25 1 8 10
M  V30 26 1 23 24
M  V30 END BOND
M  V30 BEGIN COLLECTION
M  V30 MDLV30/STEABS ATOMS=(4 3 4 8 17)
M  V30 END COLLECTION
M  V30 END CTAB
M  END
>  <Drug Name>
Ampicillin

>  <Carbon Count>
16

>  <SMILES String>
CC1([C@@H](N(C2=O)[C@@]([C@@]2(NC([C@@H](C3=CC=CC=C3)N)=O)[H])(S1)[H])C(O)=O)C

$$$$
Esomeprazole
Actelion Java MolfileCreator 2.0

  0  0  0  0  0  0              0 V3000
M  V30 BEGIN CTAB
M  V30 COUNTS 24 26 0 0 0
M  V30 BEGIN ATOM
M  V30 1 S 1.732 -0.5 0.0 0 CFG=2
M  V30 2 O 2.598 0.0 0.0 0
M  V30 3 C 1.732 -1.5 0.0 0
M  V30 4 C 0.866 0.0 0.0 0
M  V30 5 N 2.541 -2.0877 0.0 0
M  V30 6 N 0.923 -2.0877 0.0 0
M  V30 7 C 0.0 -0.5 0.0 0
M  V30 8 C 2.232 -3.0388 0.0 0
M  V30 9 C 1.232 -3.0388 0.0 0
M  V30 10 N 0.0 -1.4999 0.0 0
M  V30 11 C -0.866 0.0 0.0 0
M  V30 12 C 2.732 -3.9048 0.0 0
M  V30 13 C 0.732 -3.9048 0.0 0
M  V30 14 C -0.866 -2.0 0.0 0
M  V30 15 C -1.732 -0.5 0.0 0
M  V30 16 C -0.866 0.9999 0.0 0
M  V30 17 C 2.232 -4.7708 0.0 0
M  V30 18 C 1.232 -4.7708 0.0 0
M  V30 19 C -1.732 -1.5 0.0 0
M  V30 20 O -2.598 0.0 0.0 0
M  V30 21 O 2.732 -5.6369 0.0 0
M  V30 22 C -2.598 -2.0 0.0 0
M  V30 23 C -2.598 0.9999 0.0 0
M  V30 24 C 2.232 -6.5029 0.0 0
M  V30 END ATOM
M  V30 BEGIN BOND
M  V30 1 2 1 2
M  V30 2 1 1 3
M  V30 3 1 1 4 CFG=3
M  V30 4 2 3 5
M  V30 5 1 3 6
M  V30 6 1 4 7
M  V30 7 1 5 8
M  V30 8 1 6 9
M  V30 9 2 7 10
M  V30 10 1 7 11
M  V30 11 1 8 12
M  V30 12 1 9 13
M  V30 13 1 10 14
M  V30 14 2 11 15
M  V30 15 1 11 16
M  V30 16 2 12 17
M  V30 17 2 13 18
M  V30 18 2 14 19
M  V30 19 1 15 20
M  V30 20 1 17 21
M  V30 21 1 19 22
M  V30 22 1 20 23
M  V30 23 1 21 24
M  V30 24 2 8 9
M  V30 25 1 15 19
M  V30 26 1 17 18
M  V30 END BOND
M  V30 BEGIN COLLECTION
M  V30 MDLV30/STERAC1 ATOMS=(1 1)
M  V30 END COLLECTION
M  V30 END CTAB
M  END
>  <Drug Name>
Esomeprazole

>  <Carbon Count>
17

>  <SMILES String>
COC1=CC=C2C(N=C(N2)S(CC3=C(C(OC)=C(C=N3)C)C)=O)=C1

$$$$
Omeprazole
Actelion Java MolfileCreator 2.0

  0  0  0  0  0  0              0 V3000
M  V30 BEGIN CTAB
M  V30 COUNTS 24 26 0 0 0
M  V30 BEGIN ATOM
M  V30 1 S 1.732 -0.5 0.0 0 CFG=2
M  V30 2 O 2.598 0.0 0.0 0
M  V30 3 C 1.732 -1.5 0.0 0
M  V30 4 C 0.866 0.0 0.0 0
M  V30 5 N 2.541 -2.0877 0.0 0
M  V30 6 N 0.923 -2.0877 0.0 0
M  V30 7 C 0.0 -0.5 0.0 0
M  V30 8 C 2.232 -3.0388 0.0 0
M  V30 9 C 1.232 -3.0388 0.0 0
M  V30 10 N 0.0 -1.4999 0.0 0
M  V30 11 C -0.866 0.0 0.0 0
M  V30 12 C 2.732 -3.9048 0.0 0
M  V30 13 C 0.732 -3.9048 0.0 0
M  V30 14 C -0.866 -2.0 0.0 0
M  V30 15 C -1.732 -0.5 0.0 0
M  V30 16 C -0.866 0.9999 0.0 0
M  V30 17 C 2.232 -4.7708 0.0 0
M  V30 18 C 1.232 -4.7708 0.0 0
M  V30 19 C -1.732 -1.5 0.0 0
M  V30 20 O -2.598 0.0 0.0 0
M  V30 21 O 0.732 -5.6369 0.0 0
M  V30 22 C -2.598 -2.0 0.0 0
M  V30 23 C -2.598 0.9999 0.0 0
M  V30 24 C -0.2679 -5.6369 0.0 0
M  V30 END ATOM
M  V30 BEGIN BOND
M  V30 1 2 1 2
M  V30 2 1 1 3
M  V30 3 1 1 4 CFG=3
M  V30 4 2 3 5
M  V30 5 1 3 6
M  V30 6 1 4 7
M  V30 7 1 5 8
M  V30 8 1 6 9
M  V30 9 2 7 10
M  V30 10 1 7 11
M  V30 11 1 8 12
M  V30 12 1 9 13
M  V30 13 1 10 14
M  V30 14 2 11 15
M  V30 15 1 11 16
M  V30 16 2 12 17
M  V30 17 2 13 18
M  V30 18 2 14 19
M  V30 19 1 15 20
M  V30 20 1 18 21
M  V30 21 1 19 22
M  V30 22 1 20 23
M  V30 23 1 21 24
M  V30 24 2 8 9
M  V30 25 1 15 19
M  V30 26 1 17 18
M  V30 END BOND
M  V30 BEGIN COLLECTION
M  V30 MDLV30/STERAC1 ATOMS=(1 1)
M  V30 END COLLECTION
M  V30 END CTAB
M  END
>  <Drug Name>
Omeprazole

>  <Carbon Count>
17

>  <SMILES String>
O=S(CC1=NC=C(C(OC)=C1C)C)C2=NC3=C(N2)C=CC(OC)=C3

$$$$
Labetalol
Actelion Java MolfileCreator 2.0

  0  0  0  0  0  0              0 V3000
M  V30 BEGIN CTAB
M  V30 COUNTS 24 25 0 0 0
M  V30 BEGIN ATOM
M  V30 1 O 8.6602 -1.5 0.0 0
M  V30 2 C 8.6602 -0.5 0.0 0
M  V30 3 N 9.5262 0.0 0.0 0
M  V30 4 C 7.7942 0.0 0.0 0
M  V30 5 C 7.7942 0.9999 0.0 0
M  V30 6 C 6.9282 -0.5 0.0 0
M  V30 7 O 8.6602 1.4999 0.0 0
M  V30 8 C 6.9282 1.4999 0.0 0
M  V30 9 C 6.0621 0.0 0.0 0
M  V30 10 C 6.0621 1.0 0.0 0
M  V30 11 C 5.1961 -0.5 0.0 0
M  V30 12 O 5.1961 -1.4999 0.0 0
M  V30 13 C 4.3301 0.0 0.0 0
M  V30 14 N 3.4641 -0.5 0.0 0
M  V30 15 C 2.598 0.0 0.0 0
M  V30 16 C 1.732 -0.5 0.0 0
M  V30 17 C 2.598 1.0 0.0 0
M  V30 18 C 0.866 0.0 0.0 0
M  V30 19 C 0.0 -0.5 0.0 0
M  V30 20 C -0.866 0.0 0.0 0
M  V30 21 C 0.0 -1.4999 0.0 0
M  V30 22 C -1.732 -0.4999 0.0 0
M  V30 23 C -0.866 -1.9999 0.0 0
M  V30 24 C -1.732 -1.4999 0.0 0
M  V30 END ATOM
M  V30 BEGIN BOND
M  V30 1 2 1 2
M  V30 2 1 2 3
M  V30 3 1 2 4
M  V30 4 2 4 5
M  V30 5 1 4 6
M  V30 6 1 5 7
M  V30 7 1 5 8
M  V30 8 2 6 9
M  V30 9 2 8 10
M  V30 10 1 9 11
M  V30 11 1 11 12
M  V30 12 1 11 13
M  V30 13 1 13 14
M  V30 14 1 14 15
M  V30 15 1 15 16
M  V30 16 1 15 17
M  V30 17 1 16 18
M  V30 18 1 18 19
M  V30 19 2 19 20
M  V30 20 1 19 21
M  V30 21 1 20 22
M  V30 22 2 21 23
M  V30 23 2 22 24
M  V30 24 1 9 10
M  V30 25 1 23 24
M  V30 END BOND
M  V30 END CTAB
M  END
>  <Drug Name>
Labetalol

>  <Carbon Count>
19

>  <SMILES String>
CC(NCC(C1=CC=C(C(C(N)=O)=C1)O)O)CCC2=CC=CC=C2

$$$$
Glycopyrrolate
Actelion Java MolfileCreator 2.0

  0  0  0  0  0  0              0 V3000
M  V30 BEGIN CTAB
M  V30 COUNTS 24 25 0 0 0
M  V30 BEGIN ATOM
M  V30 1 Br 9.7772 -3.583 0.0 0 CHG=-1
M  V30 2 O 2.2144 -4.6383 0.0 0
M  V30 3 C 2.4807 -6.1486 0.0 0
M  V30 4 O 3.8853 -6.4849 0.0 0
M  V30 5 C 1.3059 -7.1344 0.0 0
M  V30 6 C 5.0965 -5.6874 0.0 0
M  V30 7 O -0.1351 -6.6099 0.0 0
M  V30 8 C 2.747 -7.6589 0.0 0
M  V30 9 C 1.5722 -8.6447 0.0 0
M  V30 10 C 4.9896 -4.1575 0.0 0
M  V30 11 C 6.5846 -6.0584 0.0 0
M  V30 12 C 3.139 -8.8934 0.0 0
M  V30 13 C 3.9947 -7.0495 0.0 0
M  V30 14 C 0.5069 -9.7478 0.0 0
M  V30 15 C 2.8889 -9.4555 0.0 0
M  V30 16 N 6.4115 -3.583 0.0 0 CHG=1
M  V30 17 C 7.3973 -4.7578 0.0 0
M  V30 18 C 4.4544 -9.6937 0.0 0
M  V30 19 C 5.3629 -7.1977 0.0 0
M  V30 20 C 1.2268 -11.1019 0.0 0
M  V30 21 C 2.7371 -10.8356 0.0 0
M  V30 22 C 5.9888 -2.1089 0.0 0
M  V30 23 C 7.4768 -2.4799 0.0 0
M  V30 24 C 5.6292 -8.7079 0.0 0
M  V30 END ATOM
M  V30 BEGIN BOND
M  V30 1 2 2 3
M  V30 2 1 3 4
M  V30 3 1 3 5
M  V30 4 1 4 6
M  V30 5 1 5 7
M  V30 6 1 5 8
M  V30 7 1 5 9
M  V30 8 1 6 10
M  V30 9 1 6 11
M  V30 10 2 8 12
M  V30 11 1 8 13
M  V30 12 1 9 14
M  V30 13 1 9 15
M  V30 14 1 10 16
M  V30 15 1 11 17
M  V30 16 1 12 18
M  V30 17 2 13 19
M  V30 18 1 14 20
M  V30 19 1 15 21
M  V30 20 1 16 22
M  V30 21 1 16 23
M  V30 22 2 18 24
M  V30 23 1 16 17
M  V30 24 1 19 24
M  V30 25 1 20 21
M  V30 END BOND
M  V30 END CTAB
M  END
>  <Drug Name>
Glycopyrrolate

>  <Carbon Count>
19

>  <SMILES String>
O=C(OC1C[N+](C)(C)CC1)C(C2CCCC2)(O)C3=CC=CC=C3.[Br-]

$$$$

Actelion Java MolfileCreator 2.0

  0  0  0  0  0  0              0 V3000
M  V30 BEGIN CTAB
M  V30 COUNTS 0 0 0 0 0
M  V30 BEGIN ATOM
M  V30 END ATOM
M  V30 BEGIN BOND
M  V30 END BOND
M  V30 END CTAB
M  END
>  <Drug Name>
Etonogestrel?

>  <Carbon Count>
22

>  <SMILES String>
O=C1CC[C@@]2([H])C(CC[C@](C(CCC3(C#C)O)[C@]3(CC)C4)([H])C2C4=C)=C1

$$$$
Mitomycin
Actelion Java MolfileCreator 2.0

  0  0  0  0  0  0              0 V3000
M  V30 BEGIN CTAB
M  V30 COUNTS 24 27 0 0 0
M  V30 BEGIN ATOM
M  V30 1 O 5.8339 -2.8614 0.0 0
M  V30 2 C 4.8557 -2.6534 0.0 0
M  V30 3 C 4.1866 -3.3966 0.0 0
M  V30 4 C 4.5467 -1.7024 0.0 0
M  V30 5 C 3.2085 -3.1887 0.0 0
M  V30 6 C 4.4956 -4.3476 0.0 0
M  V30 7 N 5.0467 -0.8364 0.0 0
M  V30 8 C 3.5686 -1.4945 0.0 0
M  V30 9 N 2.5393 -3.9318 0.0 0
M  V30 10 C 2.8994 -2.2376 0.0 0
M  V30 11 C 4.3776 -0.0932 0.0 0 CFG=2
M  V30 12 C 5.9603 -0.4296 0.0 0
M  V30 13 C 3.4641 -0.5 0.0 0 CFG=2
M  V30 14 O 1.9213 -2.0297 0.0 0
M  V30 15 O 3.7085 0.6498 0.0 0
M  V30 16 C 4.8776 0.7727 0.0 0 CFG=2
M  V30 17 C 5.8557 0.5648 0.0 0 CFG=1
M  V30 18 C 2.598 0.0 0.0 0
M  V30 19 C 4.0175 1.6009 0.0 0
M  V30 20 N 5.5467 1.5159 0.0 0
M  V30 21 O 1.732 -0.5 0.0 0
M  V30 22 C 0.866 0.0 0.0 0
M  V30 23 O 0.866 1.0 0.0 0
M  V30 24 N 0.0 -0.5 0.0 0
M  V30 END ATOM
M  V30 BEGIN BOND
M  V30 1 2 1 2
M  V30 2 1 2 3
M  V30 3 1 2 4
M  V30 4 2 3 5
M  V30 5 1 3 6
M  V30 6 1 4 7
M  V30 7 2 4 8
M  V30 8 1 5 9
M  V30 9 1 5 10
M  V30 10 1 7 11
M  V30 11 1 7 12
M  V30 12 1 8 13
M  V30 13 2 10 14
M  V30 14 1 11 15 CFG=3
M  V30 15 1 11 16
M  V30 16 1 12 17
M  V30 17 1 13 18 CFG=1
M  V30 18 1 15 19
M  V30 19 1 16 20 CFG=1
M  V30 20 1 18 21
M  V30 21 1 21 22
M  V30 22 2 22 23
M  V30 23 1 22 24
M  V30 24 1 8 10
M  V30 25 1 11 13
M  V30 26 1 16 17
M  V30 27 1 17 20 CFG=1
M  V30 END BOND
M  V30 BEGIN COLLECTION
M  V30 MDLV30/STEABS ATOMS=(4 11 13 16 17)
M  V30 END COLLECTION
M  V30 END CTAB
M  END
>  <Drug Name>
Mitomycin

>  <Carbon Count>
15

>  <SMILES String>
O=C(C(C)=C1N)C2=C([C@@H](COC(N)=O)[C@]3(OC)N2C[C@H]4[C@@H]3N4)C1=O

$$$$
Norelgestromin
Actelion Java MolfileCreator 2.0

  0  0  0  0  0  0              0 V3000
M  V30 BEGIN CTAB
M  V30 COUNTS 24 27 0 0 0
M  V30 BEGIN ATOM
M  V30 1 O 12.1119 2.0421 0.0 0
M  V30 2 N 10.8905 2.9296 0.0 0
M  V30 3 C 9.5112 2.3155 0.0 0
M  V30 4 C 9.3534 0.814 0.0 0
M  V30 5 C 8.2898 3.2029 0.0 0
M  V30 6 C 7.9742 0.1999 0.0 0
M  V30 7 C 6.9105 2.5888 0.0 0
M  V30 8 C 6.7527 1.0873 0.0 0 CFG=2
M  V30 9 C 7.8164 -1.3015 0.0 0
M  V30 10 C 5.3735 0.4732 0.0 0 CFG=2
M  V30 11 C 6.4371 -1.9156 0.0 0
M  V30 12 C 5.2157 -1.0282 0.0 0 CFG=1
M  V30 13 C 4.152 1.3607 0.0 0
M  V30 14 C 3.8364 -1.6423 0.0 0 CFG=1
M  V30 15 C 2.7728 0.7466 0.0 0
M  V30 16 C 2.615 -0.7548 0.0 0 CFG=2
M  V30 17 C 3.3699 -3.0782 0.0 0
M  V30 18 C 1.3935 -1.6423 0.0 0 CFG=2
M  V30 19 C 1.4029 0.0961 0.0 0
M  V30 20 C 1.8601 -3.0782 0.0 0
M  V30 21 O 0.9664 -0.3433 0.0 0
M  V30 22 C -0.0423 -1.1757 0.0 0
M  V30 23 C 1.3075 1.5097 0.0 0
M  V30 24 C -1.4781 -0.7092 0.0 0
M  V30 END ATOM
M  V30 BEGIN BOND
M  V30 1 1 1 2
M  V30 2 2 2 3 CFG=2
M  V30 3 1 3 4
M  V30 4 1 3 5
M  V30 5 2 4 6
M  V30 6 1 5 7
M  V30 7 1 6 8
M  V30 8 1 6 9
M  V30 9 1 8 10
M  V30 10 1 9 11
M  V30 11 1 10 12
M  V30 12 1 10 13 CFG=3
M  V30 13 1 12 14
M  V30 14 1 13 15
M  V30 15 1 14 16
M  V30 16 1 14 17 CFG=3
M  V30 17 1 16 18
M  V30 18 1 16 19 CFG=3
M  V30 19 1 17 20
M  V30 20 1 18 21 CFG=3
M  V30 21 1 18 22
M  V30 22 1 19 23
M  V30 23 3 22 24
M  V30 24 1 8 7 CFG=1
M  V30 25 1 12 11 CFG=1
M  V30 26 1 15 16
M  V30 27 1 18 20
M  V30 END BOND
M  V30 BEGIN COLLECTION
M  V30 MDLV30/STEABS ATOMS=(6 8 10 12 14 16 18)
M  V30 END COLLECTION
M  V30 END CTAB
M  END
>  <Drug Name>
Norelgestromin

>  <Carbon Count>
21

>  <SMILES String>
ON=C4\C=C3/[C@@H]([C@H]2CC[C@]1([C@@H](CC[C@]1(C#C)O)[C@@H]2CC3)CC)CC4

$$$$
Lesinurad
Actelion Java MolfileCreator 2.0

  0  0  0  0  0  0              0 V3000
M  V30 BEGIN CTAB
M  V30 COUNTS 24 27 0 0 0
M  V30 BEGIN ATOM
M  V30 1 Br 4.9535 -2.6159 0.0 0
M  V30 2 C 4.5467 -1.7024 0.0 0
M  V30 3 N 5.0467 -0.8364 0.0 0
M  V30 4 N 3.5686 -1.4945 0.0 0
M  V30 5 N 4.3776 -0.0932 0.0 0
M  V30 6 C 2.8254 -2.1636 0.0 0
M  V30 7 C 3.4641 -0.5 0.0 0
M  V30 8 C 1.8744 -1.8546 0.0 0
M  V30 9 C 3.0333 -3.1418 0.0 0
M  V30 10 S 2.598 0.0 0.0 0
M  V30 11 C 1.1312 -2.5237 0.0 0
M  V30 12 C 1.6665 -0.8764 0.0 0
M  V30 13 C 2.2902 -3.8109 0.0 0
M  V30 14 C 2.598 0.9999 0.0 0
M  V30 15 C 1.3391 -3.5019 0.0 0
M  V30 16 C 0.1802 -2.2147 0.0 0
M  V30 17 C 0.7154 -0.5674 0.0 0
M  V30 18 C 1.732 1.4999 0.0 0
M  V30 19 C 0.596 -4.171 0.0 0
M  V30 20 C -0.0276 -1.2366 0.0 0
M  V30 21 O 0.866 0.9999 0.0 0
M  V30 22 O 1.732 2.4999 0.0 0
M  V30 23 C -0.382 -4.3789 0.0 0
M  V30 24 C 0.287 -5.1221 0.0 0
M  V30 END ATOM
M  V30 BEGIN BOND
M  V30 1 1 1 2
M  V30 2 2 2 3
M  V30 3 1 2 4
M  V30 4 1 3 5
M  V30 5 1 4 6
M  V30 6 1 4 7
M  V30 7 1 6 8
M  V30 8 2 6 9
M  V30 9 1 7 10
M  V30 10 1 8 11
M  V30 11 2 8 12
M  V30 12 1 9 13
M  V30 13 1 10 14
M  V30 14 1 11 15
M  V30 15 2 11 16
M  V30 16 1 12 17
M  V30 17 1 14 18
M  V30 18 1 15 19
M  V30 19 1 16 20
M  V30 20 2 18 21
M  V30 21 1 18 22
M  V30 22 1 19 23
M  V30 23 1 19 24
M  V30 24 2 5 7
M  V30 25 2 13 15
M  V30 26 2 17 20
M  V30 27 1 23 24
M  V30 END BOND
M  V30 END CTAB
M  END
>  <Drug Name>
Lesinurad

>  <Carbon Count>
17

>  <SMILES String>
O=C(O)CSC1=NN=C(Br)N1C2=C3C=CC=CC3=C(C4CC4)C=C2

$$$$
Ciprofloxacin
Actelion Java MolfileCreator 2.0

  0  0  0  0  0  0              0 V3000
M  V30 BEGIN CTAB
M  V30 COUNTS 24 27 0 0 0
M  V30 BEGIN ATOM
M  V30 1 F 3.4641 -4.4999 0.0 0
M  V30 2 C 3.4641 -3.4999 0.0 0
M  V30 3 C 4.3301 -3.0 0.0 0
M  V30 4 C 2.598 -2.9999 0.0 0
M  V30 5 N 5.1961 -3.5 0.0 0
M  V30 6 C 4.3301 -1.9999 0.0 0
M  V30 7 C 2.598 -2.0 0.0 0
M  V30 8 C 5.1961 -4.5 0.0 0
M  V30 9 C 6.0621 -3.0 0.0 0
M  V30 10 C 3.4641 -1.5 0.0 0
M  V30 11 C 1.732 -1.5 0.0 0
M  V30 12 C 6.0621 -5.0 0.0 0
M  V30 13 C 6.9282 -3.5 0.0 0
M  V30 14 N 3.4641 -0.5 0.0 0
M  V30 15 O 0.866 -2.0 0.0 0
M  V30 16 C 1.732 -0.5 0.0 0
M  V30 17 N 6.9282 -4.5 0.0 0
M  V30 18 C 2.598 0.0 0.0 0
M  V30 19 C 4.3301 0.0 0.0 0
M  V30 20 C 0.866 0.0 0.0 0
M  V30 21 C 5.3301 0.0 0.0 0
M  V30 22 C 4.8301 0.866 0.0 0
M  V30 23 O 0.866 1.0 0.0 0
M  V30 24 O 0.0 -0.5 0.0 0
M  V30 END ATOM
M  V30 BEGIN BOND
M  V30 1 1 1 2
M  V30 2 2 2 3
M  V30 3 1 2 4
M  V30 4 1 3 5
M  V30 5 1 3 6
M  V30 6 2 4 7
M  V30 7 1 5 8
M  V30 8 1 5 9
M  V30 9 2 6 10
M  V30 10 1 7 11
M  V30 11 1 8 12
M  V30 12 1 9 13
M  V30 13 1 10 14
M  V30 14 2 11 15
M  V30 15 1 11 16
M  V30 16 1 12 17
M  V30 17 1 14 18
M  V30 18 1 14 19
M  V30 19 1 16 20
M  V30 20 1 19 21
M  V30 21 1 19 22
M  V30 22 2 20 23
M  V30 23 1 20 24
M  V30 24 1 7 10
M  V30 25 1 13 17
M  V30 26 2 16 18
M  V30 27 1 21 22
M  V30 END BOND
M  V30 END CTAB
M  END
>  <Drug Name>
Ciprofloxacin

>  <Carbon Count>
17

>  <SMILES String>
O=C(O)C1=CN(C2=CC(N3CCNCC3)=C(F)C=C2C1=O)C4CC4

$$$$
Medroxyprogesterone
Actelion Java MolfileCreator 2.0

  0  0  0  0  0  0              0 V3000
M  V30 BEGIN CTAB
M  V30 COUNTS 25 28 0 0 0
M  V30 BEGIN ATOM
M  V30 1 O -5.9608 9.1068 0.0 0
M  V30 2 C -4.953 7.9876 0.0 0
M  V30 3 C -3.4798 8.3007 0.0 0
M  V30 4 C -5.4184 6.5552 0.0 0
M  V30 5 C -2.472 7.1815 0.0 0
M  V30 6 C -4.4106 5.4359 0.0 0
M  V30 7 C -2.9374 5.7491 0.0 0 CFG=2
M  V30 8 C -0.9988 7.4946 0.0 0 CFG=2
M  V30 9 C -1.9296 4.6298 0.0 0 CFG=2
M  V30 10 C -3.4028 4.3167 0.0 0
M  V30 11 C 0.0089 6.3753 0.0 0
M  V30 12 C -0.5334 8.927 0.0 0
M  V30 13 C -0.4565 4.9429 0.0 0 CFG=1
M  V30 14 C -2.3951 3.1974 0.0 0
M  V30 15 C 0.5512 3.8237 0.0 0 CFG=1
M  V30 16 C -1.3873 2.0782 0.0 0
M  V30 17 C 0.0858 2.3913 0.0 0 CFG=2
M  V30 18 C 2.0573 3.8237 0.0 0
M  V30 19 C 1.3043 1.506 0.0 0 CFG=1
M  V30 20 C -0.3478 0.9791 0.0 0
M  V30 21 C 2.5227 2.3913 0.0 0
M  V30 22 O 0.2036 0.7004 0.0 0
M  V30 23 C 1.3043 0.0 0.0 0
M  V30 24 O 2.6086 -0.753 0.0 0
M  V30 25 C 0.0 -0.753 0.0 0
M  V30 END ATOM
M  V30 BEGIN BOND
M  V30 1 2 1 2
M  V30 2 1 2 3
M  V30 3 1 2 4
M  V30 4 2 3 5
M  V30 5 1 4 6
M  V30 6 1 5 7
M  V30 7 1 5 8
M  V30 8 1 7 9
M  V30 9 1 7 10 CFG=3
M  V30 10 1 8 11
M  V30 11 1 8 12 CFG=1
M  V30 12 1 9 13
M  V30 13 1 9 14 CFG=3
M  V30 14 1 13 15
M  V30 15 1 14 16
M  V30 16 1 15 17
M  V30 17 1 15 18 CFG=3
M  V30 18 1 17 19
M  V30 19 1 17 20 CFG=3
M  V30 20 1 18 21
M  V30 21 1 19 22 CFG=1
M  V30 22 1 19 23
M  V30 23 2 23 24
M  V30 24 1 23 25
M  V30 25 1 6 7
M  V30 26 1 13 11 CFG=1
M  V30 27 1 16 17
M  V30 28 1 19 21
M  V30 END BOND
M  V30 BEGIN COLLECTION
M  V30 MDLV30/STEABS ATOMS=(7 7 8 9 13 15 17 19)
M  V30 END COLLECTION
M  V30 END CTAB
M  END
>  <Drug Name>
Medroxyprogesterone

>  <Carbon Count>
22

>  <SMILES String>
O=C1CC[C@]2(C)[C@@]3([H])CC[C@]4(C)[C@@](O)(C(C)=O)CC[C@@]4([H])[C@]3([H])C[C@H](C)C2=C1

$$$$
Norethindrone Acetate
Actelion Java MolfileCreator 2.0

  0  0  0  0  0  0              0 V3000
M  V30 BEGIN CTAB
M  V30 COUNTS 25 28 0 0 0
M  V30 BEGIN ATOM
M  V30 1 O -2.4832 4.7872 0.0 0
M  V30 2 C -1.7761 4.0801 0.0 0
M  V30 3 C -0.8102 4.3389 0.0 0
M  V30 4 C -2.0349 3.1142 0.0 0
M  V30 5 C -0.103 3.6318 0.0 0
M  V30 6 C -1.3278 2.4071 0.0 0
M  V30 7 C -0.3619 2.6659 0.0 0 CFG=2
M  V30 8 C 0.8628 3.8907 0.0 0
M  V30 9 C 0.3451 1.9588 0.0 0 CFG=2
M  V30 10 C 1.5699 3.1835 0.0 0
M  V30 11 C 1.3111 2.2176 0.0 0 CFG=1
M  V30 12 C 0.0863 0.9929 0.0 0
M  V30 13 C 2.0182 1.5105 0.0 0 CFG=1
M  V30 14 C 0.762 0.3088 0.0 0
M  V30 15 C 1.7594 0.5446 0.0 0 CFG=2
M  V30 16 C 3.0168 1.5629 0.0 0
M  V30 17 C 2.598 0.0 0.0 0 CFG=2
M  V30 18 C 1.4602 -0.5117 0.0 0
M  V30 19 C 3.3752 0.6293 0.0 0
M  V30 20 O 1.8483 -0.5329 0.0 0
M  V30 21 C 2.6504 -0.9986 0.0 0
M  V30 22 C 0.8938 -0.0824 0.0 0
M  V30 23 C 2.7027 -1.9972 0.0 0
M  V30 24 O 0.866 1.0 0.0 0
M  V30 25 C 0.0 -0.5 0.0 0
M  V30 END ATOM
M  V30 BEGIN BOND
M  V30 1 2 1 2
M  V30 2 1 2 3
M  V30 3 1 2 4
M  V30 4 2 3 5
M  V30 5 1 4 6
M  V30 6 1 5 7
M  V30 7 1 5 8
M  V30 8 1 7 9
M  V30 9 1 8 10
M  V30 10 1 9 11
M  V30 11 1 9 12 CFG=3
M  V30 12 1 11 13
M  V30 13 1 12 14
M  V30 14 1 13 15
M  V30 15 1 13 16 CFG=3
M  V30 16 1 15 17
M  V30 17 1 15 18 CFG=3
M  V30 18 1 16 19
M  V30 19 1 17 20 CFG=3
M  V30 20 1 17 21
M  V30 21 1 20 22
M  V30 22 3 21 23
M  V30 23 2 22 24
M  V30 24 1 22 25
M  V30 25 1 7 6 CFG=1
M  V30 26 1 11 10 CFG=1
M  V30 27 1 14 15
M  V30 28 1 17 19
M  V30 END BOND
M  V30 BEGIN COLLECTION
M  V30 MDLV30/STERAC1 ATOMS=(6 7 9 11 13 15 17)
M  V30 END COLLECTION
M  V30 END CTAB
M  END
>  <Drug Name>
Norethindrone Acetate

>  <Carbon Count>
22

>  <SMILES String>
C#C[C@]1(OC(C)=O)CC[C@@]2([H])[C@]3([H])CCC4=CC(CC[C@]4([H])[C@@]3([H])CC[C@]12C)=O

$$$$
Clotrimazole
Actelion Java MolfileCreator 2.0

  0  0  0  0  0  0              0 V3000
M  V30 BEGIN CTAB
M  V30 COUNTS 25 28 0 0 0
M  V30 BEGIN ATOM
M  V30 1 Cl 3.9759 1.5303 0.0 0
M  V30 2 C 3.9759 0.0 0.0 0
M  V30 3 C 2.6506 -0.7651 0.0 0
M  V30 4 C 5.3013 -0.7651 0.0 0
M  V30 5 C 2.8392 -2.261 0.0 0
M  V30 6 C 1.3253 0.0 0.0 0
M  V30 7 C 5.3013 -2.2955 0.0 0
M  V30 8 C 3.9759 -3.0607 0.0 0
M  V30 9 N 1.3253 1.5303 0.0 0
M  V30 10 C 1.3253 -1.5303 0.0 0
M  V30 11 C 0.0 -0.7651 0.0 0
M  V30 12 C 2.5634 2.4298 0.0 0
M  V30 13 C 0.0872 2.4298 0.0 0
M  V30 14 C 0.1957 -2.3062 0.0 0
M  V30 15 C 2.2704 -2.3377 0.0 0
M  V30 16 C -1.3253 0.0 0.0 0
M  V30 17 C -0.3756 -2.3467 0.0 0
M  V30 18 N 2.0905 3.8853 0.0 0
M  V30 19 C 0.5601 3.8853 0.0 0
M  V30 20 C 0.0 -3.8259 0.0 0
M  V30 21 C 2.6506 -3.8259 0.0 0
M  V30 22 C -2.6506 -0.7651 0.0 0
M  V30 23 C -1.3253 -3.0607 0.0 0
M  V30 24 C 1.3253 -4.591 0.0 0
M  V30 25 C -2.6506 -2.2955 0.0 0
M  V30 END ATOM
M  V30 BEGIN BOND
M  V30 1 1 1 2
M  V30 2 2 2 3
M  V30 3 1 2 4
M  V30 4 1 3 5
M  V30 5 1 3 6
M  V30 6 2 4 7
M  V30 7 2 5 8
M  V30 8 1 6 9
M  V30 9 1 6 10
M  V30 10 1 6 11
M  V30 11 1 9 12
M  V30 12 1 9 13
M  V30 13 2 10 14
M  V30 14 1 10 15
M  V30 15 2 11 16
M  V30 16 1 11 17
M  V30 17 2 12 18
M  V30 18 2 13 19
M  V30 19 1 14 20
M  V30 20 2 15 21
M  V30 21 1 16 22
M  V30 22 2 17 23
M  V30 23 2 20 24
M  V30 24 2 22 25
M  V30 25 1 7 8
M  V30 26 1 18 19
M  V30 27 1 21 24
M  V30 28 1 23 25
M  V30 END BOND
M  V30 END CTAB
M  END
>  <Drug Name>
Clotrimazole

>  <Carbon Count>
22

>  <SMILES String>
ClC1=C(C=CC=C1)C(C2=CC=CC=C2)(C3=CC=CC=C3)N4C=CN=C4

$$$$
Formoterol
Actelion Java MolfileCreator 2.0

  0  0  0  0  0  0              0 V3000
M  V30 BEGIN CTAB
M  V30 COUNTS 25 26 0 0 0
M  V30 BEGIN ATOM
M  V30 1 O 5.1961 -4.4999 0.0 0
M  V30 2 C 5.1961 -3.4999 0.0 0
M  V30 3 N 6.0621 -3.0 0.0 0
M  V30 4 C 6.0621 -2.0 0.0 0
M  V30 5 C 6.9282 -1.5 0.0 0
M  V30 6 C 5.1961 -1.4999 0.0 0
M  V30 7 O 7.7942 -2.0 0.0 0
M  V30 8 C 6.9282 -0.5 0.0 0
M  V30 9 C 5.1961 -0.5 0.0 0
M  V30 10 C 6.0621 0.0 0.0 0
M  V30 11 C 4.3301 0.0 0.0 0
M  V30 12 O 4.3301 1.0 0.0 0
M  V30 13 C 3.4641 -0.5 0.0 0
M  V30 14 N 2.598 0.0 0.0 0
M  V30 15 C 1.732 -0.5 0.0 0
M  V30 16 C 0.866 0.0 0.0 0
M  V30 17 C 1.732 -1.5 0.0 0
M  V30 18 C 0.0 -0.5 0.0 0
M  V30 19 C -0.866 0.0 0.0 0
M  V30 20 C 0.0 -1.4999 0.0 0
M  V30 21 C -1.732 -0.4999 0.0 0
M  V30 22 C -0.866 -1.9999 0.0 0
M  V30 23 C -1.732 -1.4999 0.0 0
M  V30 24 O -2.598 -1.9999 0.0 0
M  V30 25 C -2.598 -2.9999 0.0 0
M  V30 END ATOM
M  V30 BEGIN BOND
M  V30 1 2 1 2
M  V30 2 1 2 3
M  V30 3 1 3 4
M  V30 4 2 4 5
M  V30 5 1 4 6
M  V30 6 1 5 7
M  V30 7 1 5 8
M  V30 8 2 6 9
M  V30 9 2 8 10
M  V30 10 1 9 11
M  V30 11 1 11 12
M  V30 12 1 11 13
M  V30 13 1 13 14
M  V30 14 1 14 15
M  V30 15 1 15 16
M  V30 16 1 15 17
M  V30 17 1 16 18
M  V30 18 2 18 19
M  V30 19 1 18 20
M  V30 20 1 19 21
M  V30 21 2 20 22
M  V30 22 2 21 23
M  V30 23 1 23 24
M  V30 24 1 24 25
M  V30 25 1 9 10
M  V30 26 1 22 23
M  V30 END BOND
M  V30 END CTAB
M  END
>  <Drug Name>
Formoterol

>  <Carbon Count>
19

>  <SMILES String>
O=CNC1=C(O)C=CC([C@H](CN[C@H](C)CC2=CC=C(C=C2)OC)O)=C1

$$$$
Formoterol Fumarate
Actelion Java MolfileCreator 2.0

  0  0  0  0  0  0              0 V3000
M  V30 BEGIN CTAB
M  V30 COUNTS 60 59 0 0 0
M  V30 BEGIN ATOM
M  V30 1 O 6.7494 -7.7565 0.0 0
M  V30 2 C 5.8097 -8.0985 0.0 0
M  V30 3 O 5.6361 -9.0833 0.0 0
M  V30 4 C 5.0437 -7.4558 0.0 0
M  V30 5 C 4.104 -7.7978 0.0 0
M  V30 6 C 3.3379 -7.155 0.0 0
M  V30 7 O 3.5116 -6.1702 0.0 0
M  V30 8 O 2.3982 -7.497 0.0 0
M  V30 9 O 9.0793 -6.689 0.0 0
M  V30 10 C 9.2529 -5.7042 0.0 0
M  V30 11 N 10.1926 -5.3622 0.0 0
M  V30 12 C 10.3663 -4.3774 0.0 0
M  V30 13 C 11.306 -4.0353 0.0 0
M  V30 14 C 9.6002 -3.7346 0.0 0
M  V30 15 O 12.072 -4.6781 0.0 0
M  V30 16 C 11.4796 -3.0505 0.0 0
M  V30 17 C 9.7739 -2.7498 0.0 0
M  V30 18 C 10.7136 -2.4078 0.0 0
M  V30 19 C 9.0078 -2.107 0.0 0
M  V30 20 O 9.1815 -1.1222 0.0 0
M  V30 21 C 8.0681 -2.449 0.0 0
M  V30 22 N 7.3021 -1.8062 0.0 0
M  V30 23 C 6.3624 -2.1482 0.0 0
M  V30 24 C 5.5963 -1.5054 0.0 0
M  V30 25 C 6.1887 -3.133 0.0 0
M  V30 26 C 4.6567 -1.8475 0.0 0
M  V30 27 C 3.8906 -1.2047 0.0 0
M  V30 28 C 4.483 -2.8323 0.0 0
M  V30 29 C 2.9509 -1.5467 0.0 0
M  V30 30 C 3.5433 -3.1743 0.0 0
M  V30 31 C 2.7773 -2.5315 0.0 0
M  V30 32 O 1.8376 -2.8735 0.0 0
M  V30 33 C 1.6639 -3.8583 0.0 0
M  V30 34 O 5.4284 6.162 0.0 0
M  V30 35 C 5.2548 5.1772 0.0 0
M  V30 36 N 4.3151 4.8352 0.0 0
M  V30 37 C 4.1415 3.8504 0.0 0
M  V30 38 C 3.2018 3.5084 0.0 0
M  V30 39 C 4.9075 3.2076 0.0 0
M  V30 40 O 2.4357 4.1512 0.0 0
M  V30 41 C 3.0281 2.5236 0.0 0
M  V30 42 C 4.7339 2.2228 0.0 0
M  V30 43 C 3.7942 1.8808 0.0 0
M  V30 44 C 5.4999 1.58 0.0 0
M  V30 45 O 5.3263 0.5952 0.0 0
M  V30 46 C 6.4396 1.922 0.0 0
M  V30 47 N 7.2056 1.2793 0.0 0
M  V30 48 C 8.1453 1.6213 0.0 0
M  V30 49 C 8.9114 0.9785 0.0 0
M  V30 50 C 8.319 2.6061 0.0 0
M  V30 51 C 9.8511 1.3205 0.0 0
M  V30 52 C 10.6171 0.6777 0.0 0
M  V30 53 C 10.0247 2.3053 0.0 0
M  V30 54 C 11.5568 1.0197 0.0 0
M  V30 55 C 10.9644 2.6473 0.0 0
M  V30 56 C 11.7305 2.0046 0.0 0
M  V30 57 O 12.6701 2.3466 0.0 0
M  V30 58 C 12.8438 3.3314 0.0 0
M  V30 59 O 0.4898 -0.1515 0.0 0
M  V30 60 O 13.3568 -1.26 0.0 0
M  V30 END ATOM
M  V30 BEGIN BOND
M  V30 1 2 1 2
M  V30 2 1 2 3
M  V30 3 1 2 4
M  V30 4 2 4 5
M  V30 5 1 5 6
M  V30 6 2 6 7
M  V30 7 1 6 8
M  V30 8 2 9 10
M  V30 9 1 10 11
M  V30 10 1 11 12
M  V30 11 2 12 13
M  V30 12 1 12 14
M  V30 13 1 13 15
M  V30 14 1 13 16
M  V30 15 2 14 17
M  V30 16 2 16 18
M  V30 17 1 17 19
M  V30 18 1 19 20
M  V30 19 1 19 21
M  V30 20 1 21 22
M  V30 21 1 22 23
M  V30 22 1 23 24
M  V30 23 1 23 25
M  V30 24 1 24 26
M  V30 25 2 26 27
M  V30 26 1 26 28
M  V30 27 1 27 29
M  V30 28 2 28 30
M  V30 29 2 29 31
M  V30 30 1 31 32
M  V30 31 1 32 33
M  V30 32 2 34 35
M  V30 33 1 35 36
M  V30 34 1 36 37
M  V30 35 2 37 38
M  V30 36 1 37 39
M  V30 37 1 38 40
M  V30 38 1 38 41
M  V30 39 2 39 42
M  V30 40 2 41 43
M  V30 41 1 42 44
M  V30 42 1 44 45
M  V30 43 1 44 46
M  V30 44 1 46 47
M  V30 45 1 47 48
M  V30 46 1 48 49
M  V30 47 1 48 50
M  V30 48 1 49 51
M  V30 49 2 51 52
M  V30 50 1 51 53
M  V30 51 1 52 54
M  V30 52 2 53 55
M  V30 53 2 54 56
M  V30 54 1 56 57
M  V30 55 1 57 58
M  V30 56 1 17 18
M  V30 57 1 30 31
M  V30 58 1 42 43
M  V30 59 1 55 56
M  V30 END BOND
M  V30 END CTAB
M  END
>  <Drug Name>
Formoterol Fumarate

>  <Carbon Count>
19

>  <SMILES String>
O=CNc1cc(ccc1O)[C@@H](O)CN[C@H](C)Cc2ccc(OC)cc2

$$$$
Felodipine
Actelion Java MolfileCreator 2.0

  0  0  0  0  0  0              0 V3000
M  V30 BEGIN CTAB
M  V30 COUNTS 25 26 0 0 0
M  V30 BEGIN ATOM
M  V30 1 Cl 4.1358 1.8447 0.0 0
M  V30 2 C 5.2581 2.2768 0.0 0
M  V30 3 C 5.2581 3.7947 0.0 0
M  V30 4 C 6.5726 1.5178 0.0 0
M  V30 5 Cl 3.9436 4.5536 0.0 0
M  V30 6 C 6.5726 4.5536 0.0 0
M  V30 7 C 7.8872 2.2768 0.0 0
M  V30 8 C 6.5726 0.0 0.0 0 CFG=2
M  V30 9 C 7.8872 3.7947 0.0 0
M  V30 10 C 5.2581 -0.7589 0.0 0
M  V30 11 C 7.8872 -0.7589 0.0 0
M  V30 12 C 5.2581 -2.2768 0.0 0
M  V30 13 C 3.9436 0.0 0.0 0
M  V30 14 C 7.8872 -2.2768 0.0 0
M  V30 15 C 9.2017 0.0 0.0 0
M  V30 16 N 6.5726 -3.0357 0.0 0
M  V30 17 C 3.9436 -3.0357 0.0 0
M  V30 18 O 2.629 -0.7589 0.0 0
M  V30 19 O 3.8473 1.3542 0.0 0
M  V30 20 C 9.2017 -3.0357 0.0 0
M  V30 21 O 10.5162 -0.7589 0.0 0
M  V30 22 O 9.2017 1.5178 0.0 0
M  V30 23 C 2.629 2.2768 0.0 0
M  V30 24 C 10.5162 2.2768 0.0 0
M  V30 25 C 2.629 3.7947 0.0 0
M  V30 END ATOM
M  V30 BEGIN BOND
M  V30 1 1 1 2
M  V30 2 2 2 3
M  V30 3 1 2 4
M  V30 4 1 3 5
M  V30 5 1 3 6
M  V30 6 2 4 7
M  V30 7 1 8 4 CFG=1
M  V30 8 2 6 9
M  V30 9 1 8 10
M  V30 10 1 8 11
M  V30 11 2 10 12
M  V30 12 1 10 13
M  V30 13 2 11 14
M  V30 14 1 11 15
M  V30 15 1 12 16
M  V30 16 1 12 17
M  V30 17 2 13 18
M  V30 18 1 13 19
M  V30 19 1 14 20
M  V30 20 2 15 21
M  V30 21 1 15 22
M  V30 22 1 19 23
M  V30 23 1 22 24
M  V30 24 1 23 25
M  V30 25 1 7 9
M  V30 26 1 14 16
M  V30 END BOND
M  V30 BEGIN COLLECTION
M  V30 MDLV30/STERAC1 ATOMS=(1 8)
M  V30 END COLLECTION
M  V30 END CTAB
M  END
>  <Drug Name>
Felodipine

>  <Carbon Count>
18

>  <SMILES String>
O=C(OC)C1=C(NC(C)=C(C1C2=C(Cl)C(Cl)=CC=C2)C(OCC)=O)C

$$$$
Propoxyphene
Actelion Java MolfileCreator 2.0

  0  0  0  0  0  0              0 V3000
M  V30 BEGIN CTAB
M  V30 COUNTS 25 26 0 0 0
M  V30 BEGIN ATOM
M  V30 1 O 5.1961 -1.4999 0.0 0
M  V30 2 C 5.1961 -0.5 0.0 0
M  V30 3 O 4.3301 0.0 0.0 0
M  V30 4 C 6.0621 0.0 0.0 0
M  V30 5 C 3.4641 -0.5 0.0 0 CFG=2
M  V30 6 C 6.9282 -0.5 0.0 0
M  V30 7 C 3.4641 0.5 0.0 0
M  V30 8 C 2.598 0.0 0.0 0 CFG=1
M  V30 9 C 3.4641 -1.5 0.0 0
M  V30 10 C 4.3301 1.0 0.0 0
M  V30 11 C 2.7646 1.0274 0.0 0
M  V30 12 C 1.732 -0.5 0.0 0
M  V30 13 C 2.4081 1.1535 0.0 0
M  V30 14 C 2.598 -2.0 0.0 0
M  V30 15 C 4.3301 2.0 0.0 0
M  V30 16 C 2.598 1.9999 0.0 0
M  V30 17 N 0.866 0.0 0.0 0
M  V30 18 C 1.732 -1.5 0.0 0
M  V30 19 C 2.598 -2.9999 0.0 0
M  V30 20 C 3.4641 2.5 0.0 0
M  V30 21 C 0.866 1.0 0.0 0
M  V30 22 C 0.0 -0.5 0.0 0
M  V30 23 C 0.866 -2.0 0.0 0
M  V30 24 C 1.732 -3.5 0.0 0
M  V30 25 C 0.866 -2.9999 0.0 0
M  V30 END ATOM
M  V30 BEGIN BOND
M  V30 1 2 1 2
M  V30 2 1 2 3
M  V30 3 1 2 4
M  V30 4 1 3 5
M  V30 5 1 4 6
M  V30 6 1 5 7 CFG=3
M  V30 7 1 5 8
M  V30 8 1 5 9
M  V30 9 2 7 10
M  V30 10 1 7 11
M  V30 11 1 8 12
M  V30 12 1 8 13 CFG=1
M  V30 13 1 9 14
M  V30 14 1 10 15
M  V30 15 2 11 16
M  V30 16 1 12 17
M  V30 17 2 14 18
M  V30 18 1 14 19
M  V30 19 2 15 20
M  V30 20 1 17 21
M  V30 21 1 17 22
M  V30 22 1 18 23
M  V30 23 2 19 24
M  V30 24 2 23 25
M  V30 25 1 16 20
M  V30 26 1 24 25
M  V30 END BOND
M  V30 BEGIN COLLECTION
M  V30 MDLV30/STERAC1 ATOMS=(2 5 8)
M  V30 END COLLECTION
M  V30 END CTAB
M  END
>  <Drug Name>
Propoxyphene

>  <Carbon Count>
22

>  <SMILES String>
CCC(OC(C1=CC=CC=C1)(CC2=CC=CC=C2)C(CN(C)C)C)=O

$$$$
Ipratropium Bromide
Actelion Java MolfileCreator 2.0

  0  0  0  0  0  0              0 V3000
M  V30 BEGIN CTAB
M  V30 COUNTS 25 26 0 0 0
M  V30 BEGIN ATOM
M  V30 1 Br 7.8582 0.6374 0.0 0 CHG=-1
M  V30 2 O 3.3333 -1.302 0.0 0
M  V30 3 C 4.0994 -1.9448 0.0 0
M  V30 4 O 5.0391 -1.6028 0.0 0
M  V30 5 C 3.9257 -2.9296 0.0 0
M  V30 6 C 5.2008 -0.6855 0.0 0 CFG=2
M  V30 7 C 4.6918 -3.5724 0.0 0
M  V30 8 C 2.986 -3.2716 0.0 0
M  V30 9 C 4.4467 0.0247 0.0 0
M  V30 10 C 6.1257 -0.32 0.0 0
M  V30 11 C 4.5181 -4.5572 0.0 0
M  V30 12 C 5.6315 -3.2304 0.0 0
M  V30 13 O 2.8124 -4.2565 0.0 0
M  V30 14 C 4.7394 1.3567 0.0 0 CFG=1
M  V30 15 C 6.3329 1.0757 0.0 0 CFG=2
M  V30 16 C 5.2842 -5.2 0.0 0
M  V30 17 C 6.3975 -3.8732 0.0 0
M  V30 18 N 5.4341 0.6374 0.0 0 CHG=1 CFG=2
M  V30 19 C 5.2089 2.2396 0.0 0
M  V30 20 C 6.1937 2.066 0.0 0
M  V30 21 C 6.2239 -4.858 0.0 0
M  V30 22 C 5.2817 -0.2361 0.0 0
M  V30 23 C 6.3582 0.0634 0.0 0
M  V30 24 C 6.0265 -0.9901 0.0 0
M  V30 25 C 4.3208 -0.6894 0.0 0
M  V30 END ATOM
M  V30 BEGIN BOND
M  V30 1 2 2 3
M  V30 2 1 3 4
M  V30 3 1 3 5
M  V30 4 1 6 4 CFG=3
M  V30 5 1 5 7
M  V30 6 1 5 8
M  V30 7 1 6 9
M  V30 8 1 6 10
M  V30 9 2 7 11
M  V30 10 1 7 12
M  V30 11 1 8 13
M  V30 12 1 14 9 CFG=3
M  V30 13 1 15 10 CFG=3
M  V30 14 1 11 16
M  V30 15 2 12 17
M  V30 16 1 14 18
M  V30 17 1 14 19
M  V30 18 1 15 20
M  V30 19 2 16 21
M  V30 20 1 18 22
M  V30 21 1 18 23 CFG=1
M  V30 22 1 22 24
M  V30 23 1 22 25
M  V30 24 1 15 18
M  V30 25 1 17 21
M  V30 26 1 19 20
M  V30 END BOND
M  V30 BEGIN COLLECTION
M  V30 MDLV30/STEABS ATOMS=(4 6 14 15 18)
M  V30 END COLLECTION
M  V30 END CTAB
M  END
>  <Drug Name>
Ipratropium Bromide

>  <Carbon Count>
20

>  <SMILES String>
CC(C)[N+]1(C2CC(CC1CC2)OC(C(CO)C3=CC=CC=C3)=O)C.[Br-]

$$$$
Capecitabine
Actelion Java MolfileCreator 2.0

  0  0  0  0  0  0              0 V3000
M  V30 BEGIN CTAB
M  V30 COUNTS 25 26 0 0 0
M  V30 BEGIN ATOM
M  V30 1 F 7.7942 1.0 0.0 0
M  V30 2 C 7.7942 0.0 0.0 0
M  V30 3 C 6.9282 -0.5 0.0 0
M  V30 4 C 8.6602 -0.4999 0.0 0
M  V30 5 N 6.9282 -1.4999 0.0 0
M  V30 6 N 6.0621 0.0 0.0 0
M  V30 7 N 8.6602 -1.4999 0.0 0
M  V30 8 C 7.7942 -2.0 0.0 0
M  V30 9 C 5.1961 -0.5 0.0 0
M  V30 10 C 9.5262 -1.9999 0.0 0 CFG=2
M  V30 11 O 7.7942 -3.0 0.0 0
M  V30 12 O 5.1961 -1.4999 0.0 0
M  V30 13 O 4.3301 0.0 0.0 0
M  V30 14 O 9.6308 -2.9945 0.0 0
M  V30 15 C 10.4398 -1.5932 0.0 0 CFG=2
M  V30 16 C 3.4641 -0.5 0.0 0
M  V30 17 C 10.6089 -3.2024 0.0 0 CFG=1
M  V30 18 O 10.6477 -0.6151 0.0 0
M  V30 19 C 11.1089 -2.3364 0.0 0 CFG=1
M  V30 20 C 2.598 0.0 0.0 0
M  V30 21 C 11.0156 -4.1159 0.0 0
M  V30 22 O 12.1034 -2.2318 0.0 0
M  V30 23 C 1.732 -0.5 0.0 0
M  V30 24 C 0.866 0.0 0.0 0
M  V30 25 C 0.0 -0.5 0.0 0
M  V30 END ATOM
M  V30 BEGIN BOND
M  V30 1 1 1 2
M  V30 2 1 2 3
M  V30 3 2 2 4
M  V30 4 2 3 5
M  V30 5 1 3 6
M  V30 6 1 4 7
M  V30 7 1 5 8
M  V30 8 1 6 9
M  V30 9 1 10 7 CFG=1
M  V30 10 2 8 11
M  V30 11 2 9 12
M  V30 12 1 9 13
M  V30 13 1 10 14
M  V30 14 1 10 15
M  V30 15 1 13 16
M  V30 16 1 14 17
M  V30 17 1 15 18 CFG=3
M  V30 18 1 15 19
M  V30 19 1 16 20
M  V30 20 1 17 21 CFG=1
M  V30 21 1 19 22 CFG=3
M  V30 22 1 20 23
M  V30 23 1 23 24
M  V30 24 1 24 25
M  V30 25 1 7 8
M  V30 26 1 17 19
M  V30 END BOND
M  V30 BEGIN COLLECTION
M  V30 MDLV30/STEABS ATOMS=(4 10 15 17 19)
M  V30 END COLLECTION
M  V30 END CTAB
M  END
>  <Drug Name>
Capecitabine

>  <Carbon Count>
15

>  <SMILES String>
O[C@H]1[C@H](N2C=C(F)C(NC(OCCCCC)=O)=NC2=O)O[C@H](C)[C@H]1O

$$$$
Epacadostat
Actelion Java MolfileCreator 2.0

  0  0  0  0  0  0              0 V3000
M  V30 BEGIN CTAB
M  V30 COUNTS 25 26 0 0 0
M  V30 BEGIN ATOM
M  V30 1 Br 7.4731 1.6006 0.0 0
M  V30 2 C 7.681 0.6225 0.0 0
M  V30 3 C 8.632 0.3134 0.0 0
M  V30 4 C 6.9378 -0.0466 0.0 0
M  V30 5 F 9.3752 0.9826 0.0 0
M  V30 6 C 8.8399 -0.6646 0.0 0
M  V30 7 C 7.1457 -1.0247 0.0 0
M  V30 8 C 8.0968 -1.3337 0.0 0
M  V30 9 N 6.4026 -1.6939 0.0 0
M  V30 10 C 5.4515 -1.3848 0.0 0
M  V30 11 N 4.7084 -2.054 0.0 0
M  V30 12 C 5.2436 -0.4067 0.0 0
M  V30 13 O 4.9163 -3.0321 0.0 0
M  V30 14 N 5.9128 0.3364 0.0 0
M  V30 15 C 4.3301 0.0 0.0 0
M  V30 16 O 5.4128 1.2024 0.0 0
M  V30 17 N 4.4346 0.9945 0.0 0
M  V30 18 N 3.4641 -0.5 0.0 0
M  V30 19 C 2.598 0.0 0.0 0
M  V30 20 C 1.732 -0.5 0.0 0
M  V30 21 N 0.866 0.0 0.0 0
M  V30 22 S 0.0 -0.5 0.0 0
M  V30 23 O -0.4999 0.366 0.0 0
M  V30 24 O 0.4999 -1.366 0.0 0
M  V30 25 N -0.866 -0.9999 0.0 0
M  V30 END ATOM
M  V30 BEGIN BOND
M  V30 1 1 1 2
M  V30 2 2 2 3
M  V30 3 1 2 4
M  V30 4 1 3 5
M  V30 5 1 3 6
M  V30 6 2 4 7
M  V30 7 2 6 8
M  V30 8 1 7 9
M  V30 9 1 9 10
M  V30 10 2 10 11
M  V30 11 1 10 12
M  V30 12 1 11 13
M  V30 13 2 12 14
M  V30 14 1 12 15
M  V30 15 1 14 16
M  V30 16 2 15 17
M  V30 17 1 15 18
M  V30 18 1 18 19
M  V30 19 1 19 20
M  V30 20 1 20 21
M  V30 21 1 21 22
M  V30 22 2 22 23
M  V30 23 2 22 24
M  V30 24 1 22 25
M  V30 25 1 7 8
M  V30 26 1 16 17
M  V30 END BOND
M  V30 END CTAB
M  END
>  <Drug Name>
Epacadostat

>  <Carbon Count>
11

>  <SMILES String>
O/N=C(NC1=CC(Br)=C(C=C1)F)/C2=NON=C2NCCNS(N)(=O)=O

$$$$
Epacadostat
Actelion Java MolfileCreator 2.0

  0  0  0  0  0  0              0 V3000
M  V30 BEGIN CTAB
M  V30 COUNTS 25 26 0 0 0
M  V30 BEGIN ATOM
M  V30 1 Br 7.4731 1.6006 0.0 0
M  V30 2 C 7.681 0.6225 0.0 0
M  V30 3 C 8.632 0.3134 0.0 0
M  V30 4 C 6.9378 -0.0466 0.0 0
M  V30 5 F 9.3752 0.9826 0.0 0
M  V30 6 C 8.8399 -0.6646 0.0 0
M  V30 7 C 7.1457 -1.0247 0.0 0
M  V30 8 C 8.0968 -1.3337 0.0 0
M  V30 9 N 6.4026 -1.6939 0.0 0
M  V30 10 C 5.4515 -1.3848 0.0 0
M  V30 11 N 4.7084 -2.054 0.0 0
M  V30 12 C 5.2436 -0.4067 0.0 0
M  V30 13 O 4.9163 -3.0321 0.0 0
M  V30 14 N 5.9128 0.3364 0.0 0
M  V30 15 C 4.3301 0.0 0.0 0
M  V30 16 O 5.4128 1.2024 0.0 0
M  V30 17 N 4.4346 0.9945 0.0 0
M  V30 18 N 3.4641 -0.5 0.0 0
M  V30 19 C 2.598 0.0 0.0 0
M  V30 20 C 1.732 -0.5 0.0 0
M  V30 21 N 0.866 0.0 0.0 0
M  V30 22 S 0.0 -0.5 0.0 0
M  V30 23 O -0.4999 0.366 0.0 0
M  V30 24 O 0.4999 -1.366 0.0 0
M  V30 25 N -0.866 -0.9999 0.0 0
M  V30 END ATOM
M  V30 BEGIN BOND
M  V30 1 1 1 2
M  V30 2 2 2 3
M  V30 3 1 2 4
M  V30 4 1 3 5
M  V30 5 1 3 6
M  V30 6 2 4 7
M  V30 7 2 6 8
M  V30 8 1 7 9
M  V30 9 1 9 10
M  V30 10 2 10 11
M  V30 11 1 10 12
M  V30 12 1 11 13
M  V30 13 2 12 14
M  V30 14 1 12 15
M  V30 15 1 14 16
M  V30 16 2 15 17
M  V30 17 1 15 18
M  V30 18 1 18 19
M  V30 19 1 19 20
M  V30 20 1 20 21
M  V30 21 1 21 22
M  V30 22 2 22 23
M  V30 23 2 22 24
M  V30 24 1 22 25
M  V30 25 1 7 8
M  V30 26 1 16 17
M  V30 END BOND
M  V30 END CTAB
M  END
>  <Drug Name>
Epacadostat

>  <Carbon Count>
11

>  <SMILES String>
O/N=C(NC1=CC(Br)=C(C=C1)F)/C2=NON=C2NCCNS(N)(=O)=O

$$$$
Epacadostat
Actelion Java MolfileCreator 2.0

  0  0  0  0  0  0              0 V3000
M  V30 BEGIN CTAB
M  V30 COUNTS 25 26 0 0 0
M  V30 BEGIN ATOM
M  V30 1 Br 7.4731 1.6006 0.0 0
M  V30 2 C 7.681 0.6225 0.0 0
M  V30 3 C 8.632 0.3134 0.0 0
M  V30 4 C 6.9378 -0.0466 0.0 0
M  V30 5 F 9.3752 0.9826 0.0 0
M  V30 6 C 8.8399 -0.6646 0.0 0
M  V30 7 C 7.1457 -1.0247 0.0 0
M  V30 8 C 8.0968 -1.3337 0.0 0
M  V30 9 N 6.4026 -1.6939 0.0 0
M  V30 10 C 5.4515 -1.3848 0.0 0
M  V30 11 N 4.7084 -2.054 0.0 0
M  V30 12 C 5.2436 -0.4067 0.0 0
M  V30 13 O 4.9163 -3.0321 0.0 0
M  V30 14 N 5.9128 0.3364 0.0 0
M  V30 15 C 4.3301 0.0 0.0 0
M  V30 16 O 5.4128 1.2024 0.0 0
M  V30 17 N 4.4346 0.9945 0.0 0
M  V30 18 N 3.4641 -0.5 0.0 0
M  V30 19 C 2.598 0.0 0.0 0
M  V30 20 C 1.732 -0.5 0.0 0
M  V30 21 N 0.866 0.0 0.0 0
M  V30 22 S 0.0 -0.5 0.0 0
M  V30 23 O -0.4999 0.366 0.0 0
M  V30 24 O 0.4999 -1.366 0.0 0
M  V30 25 N -0.866 -0.9999 0.0 0
M  V30 END ATOM
M  V30 BEGIN BOND
M  V30 1 1 1 2
M  V30 2 2 2 3
M  V30 3 1 2 4
M  V30 4 1 3 5
M  V30 5 1 3 6
M  V30 6 2 4 7
M  V30 7 2 6 8
M  V30 8 1 7 9
M  V30 9 1 9 10
M  V30 10 2 10 11
M  V30 11 1 10 12
M  V30 12 1 11 13
M  V30 13 2 12 14
M  V30 14 1 12 15
M  V30 15 1 14 16
M  V30 16 2 15 17
M  V30 17 1 15 18
M  V30 18 1 18 19
M  V30 19 1 19 20
M  V30 20 1 20 21
M  V30 21 1 21 22
M  V30 22 2 22 23
M  V30 23 2 22 24
M  V30 24 1 22 25
M  V30 25 1 7 8
M  V30 26 1 16 17
M  V30 END BOND
M  V30 END CTAB
M  END
>  <Drug Name>
Epacadostat

>  <Carbon Count>
11

>  <SMILES String>
O/N=C(NC1=CC(Br)=C(C=C1)F)/C2=NON=C2NCCNS(N)(=O)=O

$$$$
Naltrexone
Actelion Java MolfileCreator 2.0

  0  0  0  0  0  0              0 V3000
M  V30 BEGIN CTAB
M  V30 COUNTS 25 30 0 0 0
M  V30 BEGIN ATOM
M  V30 1 O 3.1498 -3.8479 0.0 0
M  V30 2 C 3.0515 -2.8527 0.0 0
M  V30 3 C 3.8642 -2.27 0.0 0 CFG=2
M  V30 4 C 2.1405 -2.4403 0.0 0
M  V30 5 O 4.841 -2.484 0.0 0
M  V30 6 C 3.7659 -1.2749 0.0 0 CFG=2
M  V30 7 C 2.0984 -1.3894 0.0 0
M  V30 8 C 5.3464 -1.6211 0.0 0
M  V30 9 C 4.6819 -0.8738 0.0 0
M  V30 10 C 2.8549 -0.8624 0.0 0 CFG=2
M  V30 11 C 2.6158 -1.9934 0.0 0
M  V30 12 C 6.2947 -1.1495 0.0 0
M  V30 13 C 4.6409 0.1574 0.0 0
M  V30 14 O 2.0856 -0.4195 0.0 0
M  V30 15 C 2.9088 0.1682 0.0 0 CFG=1
M  V30 16 C 1.6447 -1.517 0.0 0
M  V30 17 O 7.1051 -1.7354 0.0 0
M  V30 18 C 6.437 -0.1596 0.0 0
M  V30 19 C 5.6509 0.4584 0.0 0
M  V30 20 C 3.778 0.6628 0.0 0
M  V30 21 N 1.665 -0.5152 0.0 0
M  V30 22 C 0.866 0.0 0.0 0
M  V30 23 C 0.0 -0.5 0.0 0
M  V30 24 C -1.0 -0.4999 0.0 0
M  V30 25 C -0.5 -1.366 0.0 0
M  V30 END ATOM
M  V30 BEGIN BOND
M  V30 1 2 1 2
M  V30 2 1 2 3
M  V30 3 1 2 4
M  V30 4 1 3 5 CFG=1
M  V30 5 1 3 6
M  V30 6 1 4 7
M  V30 7 1 5 8
M  V30 8 1 6 9
M  V30 9 1 6 10
M  V30 10 1 6 11 CFG=3
M  V30 11 1 8 12
M  V30 12 1 9 13
M  V30 13 1 10 14 CFG=3
M  V30 14 1 10 15
M  V30 15 1 11 16
M  V30 16 1 12 17
M  V30 17 2 12 18
M  V30 18 2 13 19
M  V30 19 1 13 20
M  V30 20 1 15 21 CFG=3
M  V30 21 1 21 22
M  V30 22 1 22 23
M  V30 23 1 23 24
M  V30 24 1 23 25
M  V30 25 1 7 10
M  V30 26 2 8 9
M  V30 27 1 15 20
M  V30 28 1 16 21
M  V30 29 1 18 19
M  V30 30 1 24 25
M  V30 END BOND
M  V30 BEGIN COLLECTION
M  V30 MDLV30/STEABS ATOMS=(4 3 6 10 15)
M  V30 END COLLECTION
M  V30 END CTAB
M  END
>  <Drug Name>
Naltrexone

>  <Carbon Count>
20

>  <SMILES String>
OC1=C(C2=C(C=C1)C[C@@]3([C@]45O)[H])O[C@]([C@@]52CCN3CC6CC6)(C(CC4)=O)[H]

$$$$
Ticarcillin
Actelion Java MolfileCreator 2.0

  0  0  0  0  0  0              0 V3000
M  V30 BEGIN CTAB
M  V30 COUNTS 25 27 0 0 0
M  V30 BEGIN ATOM
M  V30 1 S 3.1471 3.8082 0.0 0
M  V30 2 C 2.6835 2.3816 0.0 0
M  V30 3 C 4.6471 3.8082 0.0 0
M  V30 4 C 3.8971 1.5 0.0 0
M  V30 5 C 5.1106 2.3816 0.0 0
M  V30 6 C 3.8971 0.0 0.0 0 CFG=1
M  V30 7 C 5.1961 -0.75 0.0 0
M  V30 8 C 2.598 -0.75 0.0 0
M  V30 9 O 6.4952 0.0 0.0 0
M  V30 10 O 5.1961 -2.25 0.0 0
M  V30 11 O 2.598 -2.25 0.0 0
M  V30 12 N 1.299 0.0 0.0 0
M  V30 13 C 0.0 -0.75 0.0 0 CFG=2
M  V30 14 C -1.4488 -0.3617 0.0 0
M  V30 15 C -0.3882 -2.1988 0.0 0 CFG=2
M  V30 16 O -2.1988 0.9372 0.0 0
M  V30 17 N -1.8371 -1.8106 0.0 0
M  V30 18 S -0.3097 -3.6968 0.0 0
M  V30 19 C -2.654 -3.0686 0.0 0 CFG=2
M  V30 20 C -1.71 -4.2343 0.0 0
M  V30 21 C -4.152 -3.1471 0.0 0
M  V30 22 C -2.7707 -5.295 0.0 0
M  V30 23 C -1.3218 -5.6832 0.0 0
M  V30 24 O -4.9689 -1.8891 0.0 0
M  V30 25 O -4.833 -4.4836 0.0 0
M  V30 END ATOM
M  V30 BEGIN BOND
M  V30 1 1 1 2
M  V30 2 1 1 3
M  V30 3 2 2 4
M  V30 4 2 3 5
M  V30 5 1 6 4 CFG=1
M  V30 6 1 6 7
M  V30 7 1 6 8
M  V30 8 2 7 9
M  V30 9 1 7 10
M  V30 10 2 8 11
M  V30 11 1 8 12
M  V30 12 1 13 12 CFG=1
M  V30 13 1 13 14
M  V30 14 1 13 15
M  V30 15 2 14 16
M  V30 16 1 14 17
M  V30 17 1 15 18 CFG=1
M  V30 18 1 17 19
M  V30 19 1 18 20
M  V30 20 1 19 21 CFG=3
M  V30 21 1 20 22
M  V30 22 1 20 23
M  V30 23 2 21 24
M  V30 24 1 21 25
M  V30 25 1 4 5
M  V30 26 1 15 17
M  V30 27 1 19 20
M  V30 END BOND
M  V30 BEGIN COLLECTION
M  V30 MDLV30/STEABS ATOMS=(4 6 13 15 19)
M  V30 END COLLECTION
M  V30 END CTAB
M  END
>  <Drug Name>
Ticarcillin

>  <Carbon Count>
15

>  <SMILES String>
CC1(C)[C@H](C(O)=O)N2C([C@@H](NC([C@H](C(O)=O)C3=CSC=C3)=O)[C@@]2([H])S1)=O

$$$$
Pioglitazone
Actelion Java MolfileCreator 2.0

  0  0  0  0  0  0              0 V3000
M  V30 BEGIN CTAB
M  V30 COUNTS 25 27 0 0 0
M  V30 BEGIN ATOM
M  V30 1 S 5.2531 -3.5877 0.0 0
M  V30 2 C 5.5621 -4.5388 0.0 0
M  V30 3 C 6.0621 -3.0 0.0 0 CFG=2
M  V30 4 O 4.9743 -5.3478 0.0 0
M  V30 5 N 6.5621 -4.5388 0.0 0
M  V30 6 C 6.8711 -3.5877 0.0 0
M  V30 7 C 6.0621 -1.9999 0.0 0
M  V30 8 O 7.8222 -3.2787 0.0 0
M  V30 9 C 5.1961 -1.4999 0.0 0
M  V30 10 C 5.1961 -0.5 0.0 0
M  V30 11 C 4.3301 -1.9999 0.0 0
M  V30 12 C 4.3301 0.0 0.0 0
M  V30 13 C 3.4641 -1.5 0.0 0
M  V30 14 C 3.4641 -0.5 0.0 0
M  V30 15 O 2.598 0.0 0.0 0
M  V30 16 C 1.732 -0.5 0.0 0
M  V30 17 C 0.866 0.0 0.0 0
M  V30 18 C 0.0 -0.5 0.0 0
M  V30 19 N -0.866 0.0 0.0 0
M  V30 20 C 0.0 -1.4999 0.0 0
M  V30 21 C -1.732 -0.4999 0.0 0
M  V30 22 C -0.866 -1.9999 0.0 0
M  V30 23 C -1.732 -1.4999 0.0 0
M  V30 24 C -2.598 -1.9999 0.0 0
M  V30 25 C -2.598 -2.9999 0.0 0
M  V30 END ATOM
M  V30 BEGIN BOND
M  V30 1 1 1 2
M  V30 2 1 1 3
M  V30 3 2 2 4
M  V30 4 1 2 5
M  V30 5 1 3 6
M  V30 6 1 3 7 CFG=1
M  V30 7 2 6 8
M  V30 8 1 7 9
M  V30 9 2 9 10
M  V30 10 1 9 11
M  V30 11 1 10 12
M  V30 12 2 11 13
M  V30 13 2 12 14
M  V30 14 1 14 15
M  V30 15 1 15 16
M  V30 16 1 16 17
M  V30 17 1 17 18
M  V30 18 2 18 19
M  V30 19 1 18 20
M  V30 20 1 19 21
M  V30 21 2 20 22
M  V30 22 2 21 23
M  V30 23 1 23 24
M  V30 24 1 24 25
M  V30 25 1 5 6
M  V30 26 1 13 14
M  V30 27 1 22 23
M  V30 END BOND
M  V30 BEGIN COLLECTION
M  V30 MDLV30/STERAC1 ATOMS=(1 3)
M  V30 END COLLECTION
M  V30 END CTAB
M  END
>  <Drug Name>
Pioglitazone

>  <Carbon Count>
19

>  <SMILES String>
CCC1=CN=C(C=C1)CCOC2=CC=C(C=C2)CC3SC(NC3=O)=O

$$$$
Alogliptin
Actelion Java MolfileCreator 2.0

  0  0  0  0  0  0              0 V3000
M  V30 BEGIN CTAB
M  V30 COUNTS 25 27 0 0 0
M  V30 BEGIN ATOM
M  V30 1 O 2.598 1.0 0.0 0
M  V30 2 C 2.598 0.0 0.0 0
M  V30 3 N 1.732 -0.5 0.0 0
M  V30 4 N 3.4641 -0.4999 0.0 0
M  V30 5 C 1.732 -1.5 0.0 0
M  V30 6 C 0.866 0.0 0.0 0
M  V30 7 C 3.4641 -1.4999 0.0 0
M  V30 8 C 4.3301 0.0 0.0 0
M  V30 9 N 0.866 -2.0 0.0 0
M  V30 10 C 2.598 -1.9999 0.0 0
M  V30 11 C 0.866 0.9999 0.0 0
M  V30 12 O 4.3301 -1.9999 0.0 0
M  V30 13 C 0.866 -3.0 0.0 0
M  V30 14 C 0.0 -1.5 0.0 0
M  V30 15 C 0.0 1.4999 0.0 0
M  V30 16 C 1.732 1.5 0.0 0
M  V30 17 C 0.0 -3.5 0.0 0 CFG=2
M  V30 18 C -0.866 -2.0 0.0 0
M  V30 19 C -0.866 0.9999 0.0 0
M  V30 20 C 0.0 2.4999 0.0 0
M  V30 21 C 1.732 2.5 0.0 0
M  V30 22 N 0.0 -4.5 0.0 0
M  V30 23 C -0.866 -3.0 0.0 0
M  V30 24 N -1.732 0.4999 0.0 0
M  V30 25 C 0.866 2.9999 0.0 0
M  V30 END ATOM
M  V30 BEGIN BOND
M  V30 1 2 1 2
M  V30 2 1 2 3
M  V30 3 1 2 4
M  V30 4 1 3 5
M  V30 5 1 3 6
M  V30 6 1 4 7
M  V30 7 1 4 8
M  V30 8 1 5 9
M  V30 9 2 5 10
M  V30 10 1 6 11
M  V30 11 2 7 12
M  V30 12 1 9 13
M  V30 13 1 9 14
M  V30 14 2 11 15
M  V30 15 1 11 16
M  V30 16 1 13 17
M  V30 17 1 14 18
M  V30 18 1 15 19
M  V30 19 1 15 20
M  V30 20 2 16 21
M  V30 21 1 17 22 CFG=3
M  V30 22 1 17 23
M  V30 23 3 19 24
M  V30 24 2 20 25
M  V30 25 1 7 10
M  V30 26 1 18 23
M  V30 27 1 21 25
M  V30 END BOND
M  V30 BEGIN COLLECTION
M  V30 MDLV30/STEABS ATOMS=(1 17)
M  V30 END COLLECTION
M  V30 END CTAB
M  END
>  <Drug Name>
Alogliptin

>  <Carbon Count>
18

>  <SMILES String>
CN1C(C=C(N(C1=O)CC2=C(C#N)C=CC=C2)N3CCC[C@H](C3)N)=O

$$$$
Lansoprazole
Actelion Java MolfileCreator 2.0

  0  0  0  0  0  0              0 V3000
M  V30 BEGIN CTAB
M  V30 COUNTS 25 27 0 0 0
M  V30 BEGIN ATOM
M  V30 1 S 0.866 0.9999 0.0 0 CFG=2
M  V30 2 O 1.732 1.4999 0.0 0
M  V30 3 C 0.0 1.5 0.0 0
M  V30 4 C 0.866 0.0 0.0 0
M  V30 5 N -0.9135 1.0932 0.0 0
M  V30 6 N -0.1045 2.4945 0.0 0
M  V30 7 C 0.0 -0.5 0.0 0
M  V30 8 C -1.5826 1.8364 0.0 0
M  V30 9 C -1.0826 2.7024 0.0 0
M  V30 10 N -0.866 0.0 0.0 0
M  V30 11 C 0.0 -1.4999 0.0 0
M  V30 12 C -2.5826 1.8364 0.0 0
M  V30 13 C -1.5826 3.5684 0.0 0
M  V30 14 C -1.732 -0.4999 0.0 0
M  V30 15 C -0.866 -1.9999 0.0 0
M  V30 16 C 0.866 -2.0 0.0 0
M  V30 17 C -3.0826 2.7024 0.0 0
M  V30 18 C -2.5826 3.5684 0.0 0
M  V30 19 C -1.732 -1.4999 0.0 0
M  V30 20 O -0.866 -2.9999 0.0 0
M  V30 21 C -1.732 -3.4999 0.0 0
M  V30 22 C -1.732 -4.4999 0.0 0
M  V30 23 F -0.732 -4.4999 0.0 0
M  V30 24 F -1.732 -5.4999 0.0 0
M  V30 25 F -2.732 -4.4999 0.0 0
M  V30 END ATOM
M  V30 BEGIN BOND
M  V30 1 2 1 2
M  V30 2 1 1 3
M  V30 3 1 1 4 CFG=1
M  V30 4 2 3 5
M  V30 5 1 3 6
M  V30 6 1 4 7
M  V30 7 1 5 8
M  V30 8 1 6 9
M  V30 9 2 7 10
M  V30 10 1 7 11
M  V30 11 1 8 12
M  V30 12 1 9 13
M  V30 13 1 10 14
M  V30 14 2 11 15
M  V30 15 1 11 16
M  V30 16 2 12 17
M  V30 17 2 13 18
M  V30 18 2 14 19
M  V30 19 1 15 20
M  V30 20 1 20 21
M  V30 21 1 21 22
M  V30 22 1 22 23
M  V30 23 1 22 24
M  V30 24 1 22 25
M  V30 25 2 8 9
M  V30 26 1 15 19
M  V30 27 1 17 18
M  V30 END BOND
M  V30 BEGIN COLLECTION
M  V30 MDLV30/STERAC1 ATOMS=(1 1)
M  V30 END COLLECTION
M  V30 END CTAB
M  END
>  <Drug Name>
Lansoprazole

>  <Carbon Count>
16

>  <SMILES String>
O=S(CC1=NC=CC(OCC(F)(F)F)=C1C)C2=NC3=C(N2)C=CC=C3

$$$$
Amoxicillin
Actelion Java MolfileCreator 2.0

  0  0  0  0  0  0              0 V3000
M  V30 BEGIN CTAB
M  V30 COUNTS 25 27 0 0 0
M  V30 BEGIN ATOM
M  V30 1 S 5.5058 -3.6968 0.0 0
M  V30 2 C 6.9062 -4.2343 0.0 0
M  V30 3 C 5.5843 -2.1988 0.0 0 CFG=1
M  V30 4 C 7.8502 -3.0686 0.0 0 CFG=1
M  V30 5 C 6.518 -5.6832 0.0 0
M  V30 6 C 7.9669 -5.295 0.0 0
M  V30 7 N 7.0332 -1.8106 0.0 0
M  V30 8 C 5.1961 -0.75 0.0 0 CFG=1
M  V30 9 C 9.3481 -3.1471 0.0 0
M  V30 10 C 6.645 -0.3617 0.0 0
M  V30 11 N 3.8971 0.0 0.0 0
M  V30 12 O 10.0291 -4.4836 0.0 0
M  V30 13 O 10.1651 -1.8891 0.0 0
M  V30 14 O 7.395 0.9372 0.0 0
M  V30 15 C 2.598 -0.75 0.0 0
M  V30 16 O 2.598 -2.25 0.0 0
M  V30 17 C 1.299 0.0 0.0 0 CFG=2
M  V30 18 N 1.299 1.5 0.0 0
M  V30 19 C 0.0 -0.75 0.0 0
M  V30 20 C -1.299 0.0 0.0 0
M  V30 21 C 0.0 -2.25 0.0 0
M  V30 22 C -2.598 -0.75 0.0 0
M  V30 23 C -1.299 -3.0 0.0 0
M  V30 24 C -2.598 -2.25 0.0 0
M  V30 25 O -3.8971 -3.0 0.0 0
M  V30 END ATOM
M  V30 BEGIN BOND
M  V30 1 1 1 2
M  V30 2 1 3 1 CFG=3
M  V30 3 1 2 4
M  V30 4 1 2 5
M  V30 5 1 2 6
M  V30 6 1 3 7
M  V30 7 1 3 8
M  V30 8 1 4 9 CFG=1
M  V30 9 1 7 10
M  V30 10 1 8 11 CFG=3
M  V30 11 2 9 12
M  V30 12 1 9 13
M  V30 13 2 10 14
M  V30 14 1 11 15
M  V30 15 2 15 16
M  V30 16 1 15 17
M  V30 17 1 17 18 CFG=1
M  V30 18 1 17 19
M  V30 19 2 19 20
M  V30 20 1 19 21
M  V30 21 1 20 22
M  V30 22 2 21 23
M  V30 23 2 22 24
M  V30 24 1 24 25
M  V30 25 1 4 7
M  V30 26 1 8 10
M  V30 27 1 23 24
M  V30 END BOND
M  V30 BEGIN COLLECTION
M  V30 MDLV30/STEABS ATOMS=(4 3 4 8 17)
M  V30 END COLLECTION
M  V30 END CTAB
M  END
>  <Drug Name>
Amoxicillin

>  <Carbon Count>
16

>  <SMILES String>
O=C(O)[C@H](N1C2=O)C(C)(S[C@@]1([C@@H]2NC(C(C3=CC=C(O)C=C3)N)=O)[H])C

$$$$
Rosiglitazone
Actelion Java MolfileCreator 2.0

  0  0  0  0  0  0              0 V3000
M  V30 BEGIN CTAB
M  V30 COUNTS 25 27 0 0 0
M  V30 BEGIN ATOM
M  V30 1 S 7.8987 0.0054 0.0 0
M  V30 2 C 8.8769 -0.2024 0.0 0
M  V30 3 C 7.7942 0.9999 0.0 0 CFG=2
M  V30 4 O 9.2836 -1.1159 0.0 0
M  V30 5 N 9.3769 0.6635 0.0 0
M  V30 6 C 8.7077 1.4067 0.0 0
M  V30 7 C 6.9282 1.4999 0.0 0
M  V30 8 O 8.9156 2.3848 0.0 0
M  V30 9 C 6.0621 0.9999 0.0 0
M  V30 10 C 5.1961 1.4999 0.0 0
M  V30 11 C 6.0621 0.0 0.0 0
M  V30 12 C 4.3301 0.9999 0.0 0
M  V30 13 C 5.1961 -0.5 0.0 0
M  V30 14 C 4.3301 0.0 0.0 0
M  V30 15 O 3.4641 -0.5 0.0 0
M  V30 16 C 2.598 0.0 0.0 0
M  V30 17 C 1.732 -0.5 0.0 0
M  V30 18 N 0.866 0.0 0.0 0
M  V30 19 C 0.866 1.0 0.0 0
M  V30 20 C 0.0 -0.5 0.0 0
M  V30 21 N 1.732 1.4999 0.0 0
M  V30 22 C 0.0 1.4999 0.0 0
M  V30 23 C 1.732 2.5 0.0 0
M  V30 24 C 0.0 2.5 0.0 0
M  V30 25 C 0.866 3.0 0.0 0
M  V30 END ATOM
M  V30 BEGIN BOND
M  V30 1 1 1 2
M  V30 2 1 1 3
M  V30 3 2 2 4
M  V30 4 1 2 5
M  V30 5 1 3 6
M  V30 6 1 3 7 CFG=1
M  V30 7 2 6 8
M  V30 8 1 7 9
M  V30 9 2 9 10
M  V30 10 1 9 11
M  V30 11 1 10 12
M  V30 12 2 11 13
M  V30 13 2 12 14
M  V30 14 1 14 15
M  V30 15 1 15 16
M  V30 16 1 16 17
M  V30 17 1 17 18
M  V30 18 1 18 19
M  V30 19 1 18 20
M  V30 20 2 19 21
M  V30 21 1 19 22
M  V30 22 1 21 23
M  V30 23 2 22 24
M  V30 24 2 23 25
M  V30 25 1 5 6
M  V30 26 1 13 14
M  V30 27 1 24 25
M  V30 END BOND
M  V30 BEGIN COLLECTION
M  V30 MDLV30/STERAC1 ATOMS=(1 3)
M  V30 END COLLECTION
M  V30 END CTAB
M  END
>  <Drug Name>
Rosiglitazone

>  <Carbon Count>
18

>  <SMILES String>
O=C(SC1CC(C=C2)=CC=C2OCCN(C)C3=CC=CC=N3)NC1=O

$$$$
Acrivastine
Actelion Java MolfileCreator 2.0

  0  0  0  0  0  0              0 V3000
M  V30 BEGIN CTAB
M  V30 COUNTS 26 28 0 0 0
M  V30 BEGIN ATOM
M  V30 1 O 8.6602 -0.5 0.0 0
M  V30 2 C 7.7942 0.0 0.0 0
M  V30 3 O 7.7942 0.9999 0.0 0
M  V30 4 C 6.9282 -0.5 0.0 0
M  V30 5 C 6.0621 0.0 0.0 0
M  V30 6 C 5.1961 -0.5 0.0 0
M  V30 7 N 4.3301 0.0 0.0 0
M  V30 8 C 5.1961 -1.4999 0.0 0
M  V30 9 C 3.4641 -0.5 0.0 0
M  V30 10 C 4.3301 -1.9999 0.0 0
M  V30 11 C 2.598 0.0 0.0 0
M  V30 12 C 3.4641 -1.4999 0.0 0
M  V30 13 C 2.598 1.0 0.0 0
M  V30 14 C 1.732 -0.5 0.0 0
M  V30 15 C 3.4641 1.5 0.0 0
M  V30 16 C 1.732 1.4999 0.0 0
M  V30 17 C 0.866 0.0 0.0 0
M  V30 18 C 3.4641 2.5 0.0 0
M  V30 19 C 1.732 2.5 0.0 0
M  V30 20 N 0.0 -0.5 0.0 0
M  V30 21 C 2.598 3.0 0.0 0
M  V30 22 C -0.9135 -0.0932 0.0 0
M  V30 23 C -0.1045 -1.4945 0.0 0
M  V30 24 C 2.598 4.0 0.0 0
M  V30 25 C -1.5826 -0.8364 0.0 0
M  V30 26 C -1.0826 -1.7024 0.0 0
M  V30 END ATOM
M  V30 BEGIN BOND
M  V30 1 2 1 2
M  V30 2 1 2 3
M  V30 3 1 2 4
M  V30 4 2 4 5
M  V30 5 1 5 6
M  V30 6 2 6 7
M  V30 7 1 6 8
M  V30 8 1 7 9
M  V30 9 2 8 10
M  V30 10 1 9 11
M  V30 11 2 9 12
M  V30 12 1 11 13
M  V30 13 2 11 14
M  V30 14 2 13 15
M  V30 15 1 13 16
M  V30 16 1 14 17
M  V30 17 1 15 18
M  V30 18 2 16 19
M  V30 19 1 17 20
M  V30 20 2 18 21
M  V30 21 1 20 22
M  V30 22 1 20 23
M  V30 23 1 21 24
M  V30 24 1 22 25
M  V30 25 1 23 26
M  V30 26 1 10 12
M  V30 27 1 19 21
M  V30 28 1 25 26
M  V30 END BOND
M  V30 END CTAB
M  END
>  <Drug Name>
Acrivastine

>  <Carbon Count>
22

>  <SMILES String>
CC1=CC=C(/C(C2=NC(/C=C/C(O)=O)=CC=C2)=C\CN3CCCC3)C=C1

$$$$
Meropenem
Actelion Java MolfileCreator 2.0

  0  0  0  0  0  0              0 V3000
M  V30 BEGIN CTAB
M  V30 COUNTS 26 28 0 0 0
M  V30 BEGIN ATOM
M  V30 1 S 5.1752 0.2318 0.0 0
M  V30 2 C 5.582 -0.6816 0.0 0
M  V30 3 C 4.1807 0.3364 0.0 0 CFG=2
M  V30 4 C 6.5601 -0.8895 0.0 0
M  V30 5 C 5.082 -1.5476 0.0 0 CFG=1
M  V30 6 C 3.6807 1.2024 0.0 0
M  V30 7 C 3.5116 -0.4067 0.0 0
M  V30 8 N 6.6646 -1.884 0.0 0
M  V30 9 C 7.3033 -0.2204 0.0 0
M  V30 10 C 5.7511 -2.2908 0.0 0 CFG=1
M  V30 11 C 4.0874 -1.6522 0.0 0
M  V30 12 N 2.7026 0.9945 0.0 0
M  V30 13 C 2.598 0.0 0.0 0 CFG=2
M  V30 14 C 7.0714 -2.7976 0.0 0
M  V30 15 O 8.2543 -0.5294 0.0 0
M  V30 16 O 7.0953 0.7577 0.0 0
M  V30 17 C 6.1578 -3.2043 0.0 0 CFG=2
M  V30 18 C 1.732 -0.5 0.0 0
M  V30 19 O 8.005 -3.156 0.0 0
M  V30 20 C 5.7995 -4.1379 0.0 0 CFG=2
M  V30 21 O 1.732 -1.5 0.0 0
M  V30 22 N 0.866 0.0 0.0 0
M  V30 23 O 4.8118 -4.2943 0.0 0
M  V30 24 C 6.4288 -4.9151 0.0 0
M  V30 25 C 0.866 1.0 0.0 0
M  V30 26 C 0.0 -0.5 0.0 0
M  V30 END ATOM
M  V30 BEGIN BOND
M  V30 1 1 1 2
M  V30 2 1 3 1 CFG=1
M  V30 3 2 2 4
M  V30 4 1 2 5
M  V30 5 1 3 6
M  V30 6 1 3 7
M  V30 7 1 4 8
M  V30 8 1 4 9
M  V30 9 1 5 10
M  V30 10 1 5 11 CFG=1
M  V30 11 1 6 12
M  V30 12 1 7 13
M  V30 13 1 8 14
M  V30 14 2 9 15
M  V30 15 1 9 16
M  V30 16 1 10 17
M  V30 17 1 13 18 CFG=1
M  V30 18 2 14 19
M  V30 19 1 17 20
M  V30 20 2 18 21
M  V30 21 1 18 22
M  V30 22 1 20 23 CFG=1
M  V30 23 1 20 24
M  V30 24 1 22 25
M  V30 25 1 22 26
M  V30 26 1 10 8 CFG=1
M  V30 27 1 12 13
M  V30 28 1 17 14 CFG=3
M  V30 END BOND
M  V30 BEGIN COLLECTION
M  V30 MDLV30/STEABS ATOMS=(6 3 5 10 13 17 20)
M  V30 END COLLECTION
M  V30 END CTAB
M  END
>  <Drug Name>
Meropenem

>  <Carbon Count>
17

>  <SMILES String>
[H][C@]12[C@H](C(S[C@@H]3CN[C@H](C(N(C)C)=O)C3)=C(C(O)=O)N1C([C@@]2([C@H](O)C)[H])=O)C

$$$$
Prednisone
Actelion Java MolfileCreator 2.0

  0  0  0  0  0  0              0 V3000
M  V30 BEGIN CTAB
M  V30 COUNTS 26 29 0 0 0
M  V30 BEGIN ATOM
M  V30 1 O 9.8723 -9.8585 0.0 0
M  V30 2 C 8.8647 -8.7394 0.0 0
M  V30 3 C 7.3917 -9.0525 0.0 0
M  V30 4 C 9.33 -7.3072 0.0 0
M  V30 5 C 6.3841 -7.9334 0.0 0
M  V30 6 C 8.3224 -6.1881 0.0 0
M  V30 7 C 6.8494 -6.5012 0.0 0 CFG=2
M  V30 8 C 4.9111 -8.2465 0.0 0
M  V30 9 C 5.8418 -5.3821 0.0 0 CFG=1
M  V30 10 C 7.3148 -5.069 0.0 0
M  V30 11 C 3.9035 -7.1274 0.0 0
M  V30 12 C 6.3071 -3.9499 0.0 0
M  V30 13 C 4.3688 -5.6952 0.0 0 CFG=1
M  V30 14 O 7.7801 -3.6368 0.0 0
M  V30 15 C 5.2995 -2.8308 0.0 0
M  V30 16 C 3.3612 -4.5761 0.0 0 CFG=1
M  V30 17 C 3.8265 -3.1439 0.0 0 CFG=1
M  V30 18 C 1.8553 -4.5761 0.0 0
M  V30 19 C 2.6082 -2.2588 0.0 0 CFG=1
M  V30 20 C 4.2602 -1.7319 0.0 0
M  V30 21 C 1.3899 -3.1439 0.0 0
M  V30 22 O 3.7088 -1.4532 0.0 0
M  V30 23 C 2.6082 -0.7529 0.0 0
M  V30 24 O 3.9124 0.0 0.0 0
M  V30 25 C 1.3041 0.0 0.0 0
M  V30 26 O 0.0 -0.7529 0.0 0
M  V30 END ATOM
M  V30 BEGIN BOND
M  V30 1 2 1 2
M  V30 2 1 2 3
M  V30 3 1 2 4
M  V30 4 2 3 5
M  V30 5 2 4 6
M  V30 6 1 5 7
M  V30 7 1 5 8
M  V30 8 1 7 9
M  V30 9 1 7 10 CFG=3
M  V30 10 1 8 11
M  V30 11 1 9 12 CFG=3
M  V30 12 1 9 13
M  V30 13 2 12 14
M  V30 14 1 12 15
M  V30 15 1 13 16
M  V30 16 1 15 17
M  V30 17 1 16 18 CFG=3
M  V30 18 1 17 19
M  V30 19 1 17 20 CFG=3
M  V30 20 1 18 21
M  V30 21 1 19 22 CFG=1
M  V30 22 1 19 23
M  V30 23 2 23 24
M  V30 24 1 23 25
M  V30 25 1 25 26
M  V30 26 1 6 7
M  V30 27 1 13 11 CFG=1
M  V30 28 1 16 17
M  V30 29 1 19 21
M  V30 END BOND
M  V30 BEGIN COLLECTION
M  V30 MDLV30/STEABS ATOMS=(6 7 9 13 16 17 19)
M  V30 END COLLECTION
M  V30 END CTAB
M  END
>  <Drug Name>
Prednisone

>  <Carbon Count>
21

>  <SMILES String>
O=C(C=C1CC[C@@]2([H])[C@]3([H])CC[C@](O)(C(CO)=O)[C@]3(C4)C)C=C[C@]1(C)[C@@]2([H])C4=O

$$$$
prednisone
Actelion Java MolfileCreator 2.0

  0  0  0  0  0  0              0 V3000
M  V30 BEGIN CTAB
M  V30 COUNTS 26 29 0 0 0
M  V30 BEGIN ATOM
M  V30 1 O 9.8723 -9.8585 0.0 0
M  V30 2 C 8.8647 -8.7394 0.0 0
M  V30 3 C 7.3917 -9.0525 0.0 0
M  V30 4 C 9.33 -7.3072 0.0 0
M  V30 5 C 6.3841 -7.9334 0.0 0
M  V30 6 C 8.3224 -6.1881 0.0 0
M  V30 7 C 6.8494 -6.5012 0.0 0 CFG=2
M  V30 8 C 4.9111 -8.2465 0.0 0
M  V30 9 C 5.8418 -5.3821 0.0 0 CFG=1
M  V30 10 C 7.3148 -5.069 0.0 0
M  V30 11 C 3.9035 -7.1274 0.0 0
M  V30 12 C 6.3071 -3.9499 0.0 0
M  V30 13 C 4.3688 -5.6952 0.0 0 CFG=1
M  V30 14 O 7.7801 -3.6368 0.0 0
M  V30 15 C 5.2995 -2.8308 0.0 0
M  V30 16 C 3.3612 -4.5761 0.0 0 CFG=1
M  V30 17 C 3.8265 -3.1439 0.0 0 CFG=1
M  V30 18 C 1.8553 -4.5761 0.0 0
M  V30 19 C 2.6082 -2.2588 0.0 0 CFG=1
M  V30 20 C 4.2602 -1.7319 0.0 0
M  V30 21 C 1.3899 -3.1439 0.0 0
M  V30 22 O 3.7088 -1.4532 0.0 0
M  V30 23 C 2.6082 -0.7529 0.0 0
M  V30 24 O 3.9124 0.0 0.0 0
M  V30 25 C 1.3041 0.0 0.0 0
M  V30 26 O 0.0 -0.7529 0.0 0
M  V30 END ATOM
M  V30 BEGIN BOND
M  V30 1 2 1 2
M  V30 2 1 2 3
M  V30 3 1 2 4
M  V30 4 2 3 5
M  V30 5 2 4 6
M  V30 6 1 5 7
M  V30 7 1 5 8
M  V30 8 1 7 9
M  V30 9 1 7 10 CFG=3
M  V30 10 1 8 11
M  V30 11 1 9 12 CFG=3
M  V30 12 1 9 13
M  V30 13 2 12 14
M  V30 14 1 12 15
M  V30 15 1 13 16
M  V30 16 1 15 17
M  V30 17 1 16 18 CFG=3
M  V30 18 1 17 19
M  V30 19 1 17 20 CFG=3
M  V30 20 1 18 21
M  V30 21 1 19 22 CFG=1
M  V30 22 1 19 23
M  V30 23 2 23 24
M  V30 24 1 23 25
M  V30 25 1 25 26
M  V30 26 1 6 7
M  V30 27 1 13 11 CFG=1
M  V30 28 1 16 17
M  V30 29 1 19 21
M  V30 END BOND
M  V30 BEGIN COLLECTION
M  V30 MDLV30/STEABS ATOMS=(6 7 9 13 16 17 19)
M  V30 END COLLECTION
M  V30 END CTAB
M  END
>  <Drug Name>
prednisone

>  <Carbon Count>
21

>  <SMILES String>
O=C(C=C1CC[C@@]2([H])[C@]3([H])CC[C@](O)(C(CO)=O)[C@]3(C4)C)C=C[C@]1(C)[C@@]2([H])C4=O

$$$$
Hydrocortisone
Actelion Java MolfileCreator 2.0

  0  0  0  0  0  0              0 V3000
M  V30 BEGIN CTAB
M  V30 COUNTS 26 29 0 0 0
M  V30 BEGIN ATOM
M  V30 1 O 9.8723 -9.8585 0.0 0
M  V30 2 C 8.8647 -8.7394 0.0 0
M  V30 3 C 7.3917 -9.0525 0.0 0
M  V30 4 C 9.33 -7.3072 0.0 0
M  V30 5 C 6.3841 -7.9334 0.0 0
M  V30 6 C 8.3224 -6.1881 0.0 0
M  V30 7 C 6.8494 -6.5012 0.0 0 CFG=2
M  V30 8 C 4.9111 -8.2465 0.0 0
M  V30 9 C 5.8418 -5.3821 0.0 0 CFG=1
M  V30 10 C 7.3148 -5.069 0.0 0
M  V30 11 C 3.9035 -7.1274 0.0 0
M  V30 12 C 6.3071 -3.9499 0.0 0 CFG=1
M  V30 13 C 4.3688 -5.6952 0.0 0 CFG=1
M  V30 14 O 7.7801 -3.6368 0.0 0
M  V30 15 C 5.2995 -2.8308 0.0 0
M  V30 16 C 3.3612 -4.5761 0.0 0 CFG=1
M  V30 17 C 3.8265 -3.1439 0.0 0 CFG=1
M  V30 18 C 1.8553 -4.5761 0.0 0
M  V30 19 C 2.6082 -2.2588 0.0 0 CFG=1
M  V30 20 C 4.2602 -1.7319 0.0 0
M  V30 21 C 1.3899 -3.1439 0.0 0
M  V30 22 O 3.7088 -1.4532 0.0 0
M  V30 23 C 2.6082 -0.7529 0.0 0
M  V30 24 O 3.9124 0.0 0.0 0
M  V30 25 C 1.3041 0.0 0.0 0
M  V30 26 O 0.0 -0.7529 0.0 0
M  V30 END ATOM
M  V30 BEGIN BOND
M  V30 1 2 1 2
M  V30 2 1 2 3
M  V30 3 1 2 4
M  V30 4 2 3 5
M  V30 5 1 4 6
M  V30 6 1 5 7
M  V30 7 1 5 8
M  V30 8 1 7 9
M  V30 9 1 7 10 CFG=3
M  V30 10 1 8 11
M  V30 11 1 9 12 CFG=3
M  V30 12 1 9 13
M  V30 13 1 12 14 CFG=3
M  V30 14 1 12 15
M  V30 15 1 13 16
M  V30 16 1 15 17
M  V30 17 1 16 18 CFG=3
M  V30 18 1 17 19
M  V30 19 1 17 20 CFG=3
M  V30 20 1 18 21
M  V30 21 1 19 22 CFG=1
M  V30 22 1 19 23
M  V30 23 2 23 24
M  V30 24 1 23 25
M  V30 25 1 25 26
M  V30 26 1 6 7
M  V30 27 1 13 11 CFG=1
M  V30 28 1 16 17
M  V30 29 1 19 21
M  V30 END BOND
M  V30 BEGIN COLLECTION
M  V30 MDLV30/STEABS ATOMS=(7 7 9 12 13 16 17 19)
M  V30 END COLLECTION
M  V30 END CTAB
M  END
>  <Drug Name>
Hydrocortisone

>  <Carbon Count>
21

>  <SMILES String>
O=C1CC[C@]2(C)[C@@]3([H])[C@@H](O)C[C@]4(C)[C@](C(CO)=O)(O)CC[C@@]4([H])[C@]3([H])CCC2=C1

$$$$
Estradiol Valerate
Actelion Java MolfileCreator 2.0

  0  0  0  0  0  0              0 V3000
M  V30 BEGIN CTAB
M  V30 COUNTS 26 29 0 0 0
M  V30 BEGIN ATOM
M  V30 1 O 3.4641 -1.5 0.0 0
M  V30 2 C 3.4641 -0.5 0.0 0
M  V30 3 O 4.3301 0.0 0.0 0
M  V30 4 C 2.598 0.0 0.0 0
M  V30 5 C 5.1961 -0.5 0.0 0 CFG=2
M  V30 6 C 1.732 -0.5 0.0 0
M  V30 7 C 5.3006 -1.4945 0.0 0 CFG=2
M  V30 8 C 6.1096 -0.0932 0.0 0
M  V30 9 C 0.866 0.0 0.0 0
M  V30 10 C 6.2788 -1.7024 0.0 0 CFG=1
M  V30 11 C 4.6315 -2.2376 0.0 0
M  V30 12 C 4.3496 -1.1855 0.0 0
M  V30 13 C 6.7788 -0.8364 0.0 0
M  V30 14 C 0.0 -0.5 0.0 0
M  V30 15 C 6.5878 -2.6534 0.0 0 CFG=1
M  V30 16 C 4.9405 -3.1887 0.0 0
M  V30 17 C 5.9187 -3.3966 0.0 0 CFG=2
M  V30 18 C 7.5659 -2.8614 0.0 0
M  V30 19 C 6.2277 -4.3476 0.0 0
M  V30 20 C 7.875 -3.8124 0.0 0
M  V30 21 C 7.2058 -4.5556 0.0 0
M  V30 22 C 5.5586 -5.0908 0.0 0
M  V30 23 C 7.5148 -5.5066 0.0 0
M  V30 24 C 5.8676 -6.0418 0.0 0
M  V30 25 C 6.8457 -6.2498 0.0 0
M  V30 26 O 7.1547 -7.2008 0.0 0
M  V30 END ATOM
M  V30 BEGIN BOND
M  V30 1 2 1 2
M  V30 2 1 2 3
M  V30 3 1 2 4
M  V30 4 1 5 3 CFG=1
M  V30 5 1 4 6
M  V30 6 1 5 7
M  V30 7 1 5 8
M  V30 8 1 6 9
M  V30 9 1 7 10
M  V30 10 1 7 11
M  V30 11 1 7 12 CFG=1
M  V30 12 1 8 13
M  V30 13 1 9 14
M  V30 14 1 10 15
M  V30 15 1 11 16
M  V30 16 1 15 17
M  V30 17 1 15 18 CFG=3
M  V30 18 1 17 19
M  V30 19 1 18 20
M  V30 20 2 19 21
M  V30 21 1 19 22
M  V30 22 1 21 23
M  V30 23 2 22 24
M  V30 24 2 23 25
M  V30 25 1 25 26
M  V30 26 1 10 13 CFG=1
M  V30 27 1 17 16 CFG=1
M  V30 28 1 20 21
M  V30 29 1 24 25
M  V30 END BOND
M  V30 BEGIN COLLECTION
M  V30 MDLV30/STEABS ATOMS=(5 5 7 10 15 17)
M  V30 END COLLECTION
M  V30 END CTAB
M  END
>  <Drug Name>
Estradiol Valerate

>  <Carbon Count>
23

>  <SMILES String>
CCCCC(=O)O[C@H]1CC[C@@H]2[C@@]1(CC[C@H]3[C@H]2CCC4=C3C=CC(=C4)O)C

$$$$
Clidinium
Actelion Java MolfileCreator 2.0

  0  0  0  0  0  0              0 V3000
M  V30 BEGIN CTAB
M  V30 COUNTS 26 29 0 0 0
M  V30 BEGIN ATOM
M  V30 1 O 2.598 0.0 0.0 0
M  V30 2 C 1.732 -0.5 0.0 0
M  V30 3 O 1.8392 -1.4356 0.0 0
M  V30 4 C 0.866 0.0 0.0 0
M  V30 5 C 2.598 -1.9999 0.0 0 CFG=2
M  V30 6 O 0.866 1.0 0.0 0
M  V30 7 C 0.866 -1.0 0.0 0
M  V30 8 C 0.0 -0.5 0.0 0
M  V30 9 C 3.4641 -1.4999 0.0 0 CFG=1
M  V30 10 C 2.598 -2.9999 0.0 0
M  V30 11 C 0.1279 -1.507 0.0 0
M  V30 12 C 1.5176 -1.6286 0.0 0
M  V30 13 C -0.866 0.0 0.0 0
M  V30 14 C -0.2454 -1.5334 0.0 0
M  V30 15 C 4.294 -2.1248 0.0 0
M  V30 16 C 5.1961 -1.9999 0.0 0
M  V30 17 N 3.4641 -3.4999 0.0 0 CHG=1 CFG=2
M  V30 18 C 0.0 -2.4999 0.0 0
M  V30 19 C 1.732 -2.5 0.0 0
M  V30 20 C -1.732 -0.4999 0.0 0
M  V30 21 C -0.866 -1.9999 0.0 0
M  V30 22 C 4.294 -2.8751 0.0 0
M  V30 23 C 5.1961 -2.9999 0.0 0
M  V30 24 C 3.3431 -4.4926 0.0 0
M  V30 25 C 0.866 -3.0 0.0 0
M  V30 26 C -1.732 -1.4999 0.0 0
M  V30 END ATOM
M  V30 BEGIN BOND
M  V30 1 2 1 2
M  V30 2 1 2 3
M  V30 3 1 2 4
M  V30 4 1 5 3 CFG=3
M  V30 5 1 4 6
M  V30 6 1 4 7
M  V30 7 1 4 8
M  V30 8 1 5 9
M  V30 9 1 5 10
M  V30 10 2 7 11
M  V30 11 1 7 12
M  V30 12 2 8 13
M  V30 13 1 8 14
M  V30 14 1 9 15 CFG=3
M  V30 15 1 9 16
M  V30 16 1 10 17
M  V30 17 1 11 18
M  V30 18 2 12 19
M  V30 19 1 13 20
M  V30 20 2 14 21
M  V30 21 1 15 22
M  V30 22 1 16 23
M  V30 23 1 17 24 CFG=3
M  V30 24 2 18 25
M  V30 25 2 20 26
M  V30 26 1 17 22
M  V30 27 1 17 23
M  V30 28 1 19 25
M  V30 29 1 21 26
M  V30 END BOND
M  V30 BEGIN COLLECTION
M  V30 MDLV30/STEABS ATOMS=(2 9 17)
M  V30 MDLV30/STERAC1 ATOMS=(1 5)
M  V30 END COLLECTION
M  V30 END CTAB
M  END
>  <Drug Name>
Clidinium

>  <Carbon Count>
22

>  <SMILES String>
C[N+]12CCC(C(OC(C(C3=CCCC=C3)(O)C4=CC=CC=C4)=O)C2)CC1

$$$$
Perindopril
Actelion Java MolfileCreator 2.0

  0  0  0  0  0  0              0 V3000
M  V30 BEGIN CTAB
M  V30 COUNTS 26 27 0 0 0
M  V30 BEGIN ATOM
M  V30 1 O 13.501 1.7908 0.0 0
M  V30 2 C 12.0744 1.3273 0.0 0
M  V30 3 O 10.9597 2.331 0.0 0
M  V30 4 C 11.7626 -0.1398 0.0 0 CFG=1
M  V30 5 N 10.3923 -0.75 0.0 0
M  V30 6 C 12.7663 -1.2546 0.0 0
M  V30 7 C 9.0932 0.0 0.0 0
M  V30 8 C 10.549 -2.2417 0.0 0 CFG=2
M  V30 9 C 12.0163 -2.5536 0.0 0 CFG=1
M  V30 10 O 9.0932 1.4999 0.0 0
M  V30 11 C 7.7942 -0.75 0.0 0 CFG=1
M  V30 12 C 9.5454 -3.3565 0.0 0
M  V30 13 C 12.4798 -3.9802 0.0 0
M  V30 14 N 6.4951 0.0 0.0 0
M  V30 15 C 7.7942 -2.25 0.0 0
M  V30 16 C 10.0089 -4.783 0.0 0
M  V30 17 C 11.4761 -5.0949 0.0 0
M  V30 18 C 5.1961 -0.75 0.0 0 CFG=2
M  V30 19 C 3.8971 0.0 0.0 0
M  V30 20 C 5.1961 -2.25 0.0 0
M  V30 21 O 3.8971 1.5 0.0 0
M  V30 22 O 2.598 -0.75 0.0 0
M  V30 23 C 3.8971 -3.0 0.0 0
M  V30 24 C 1.299 0.0 0.0 0
M  V30 25 C 3.8971 -4.5 0.0 0
M  V30 26 C 0.0 -0.75 0.0 0
M  V30 END ATOM
M  V30 BEGIN BOND
M  V30 1 2 1 2
M  V30 2 1 2 3
M  V30 3 1 4 2 CFG=3
M  V30 4 1 4 5
M  V30 5 1 4 6
M  V30 6 1 5 7
M  V30 7 1 8 5 CFG=3
M  V30 8 1 6 9
M  V30 9 2 7 10
M  V30 10 1 7 11
M  V30 11 1 8 12
M  V30 12 1 9 13 CFG=3
M  V30 13 1 11 14
M  V30 14 1 11 15 CFG=3
M  V30 15 1 12 16
M  V30 16 1 13 17
M  V30 17 1 18 14 CFG=1
M  V30 18 1 18 19
M  V30 19 1 18 20
M  V30 20 2 19 21
M  V30 21 1 19 22
M  V30 22 1 20 23
M  V30 23 1 22 24
M  V30 24 1 23 25
M  V30 25 1 24 26
M  V30 26 1 8 9
M  V30 27 1 16 17
M  V30 END BOND
M  V30 BEGIN COLLECTION
M  V30 MDLV30/STEABS ATOMS=(5 4 8 9 11 18)
M  V30 END COLLECTION
M  V30 END CTAB
M  END
>  <Drug Name>
Perindopril

>  <Carbon Count>
19

>  <SMILES String>
CCC[C@@H](C(OCC)=O)N[C@@H](C)C(N1C(C(O)=O)C[C@@]2([H])[C@]1([H])CCCC2)=O

$$$$
Drospirenone
Actelion Java MolfileCreator 2.0

  0  0  0  0  0  0              0 V3000
M  V30 BEGIN CTAB
M  V30 COUNTS 27 33 0 0 0
M  V30 BEGIN ATOM
M  V30 1 O 2.247 8.9796 0.0 0
M  V30 2 C 2.0897 7.483 0.0 0
M  V30 3 C 3.3071 6.5984 0.0 0
M  V30 4 C 0.7149 6.8709 0.0 0
M  V30 5 C 3.1498 5.1018 0.0 0
M  V30 6 C 0.5576 5.3743 0.0 0
M  V30 7 C 1.7751 4.4898 0.0 0 CFG=2
M  V30 8 C 4.3673 4.2173 0.0 0 CFG=1
M  V30 9 C 1.6178 2.9932 0.0 0 CFG=2
M  V30 10 C 0.4003 3.8777 0.0 0
M  V30 11 C 4.21 2.7207 0.0 0 CFG=2
M  V30 12 C 5.5847 3.3328 0.0 0
M  V30 13 C 2.8352 2.1086 0.0 0 CFG=1
M  V30 14 C 0.243 2.3811 0.0 0
M  V30 15 C 2.6779 0.612 0.0 0 CFG=1
M  V30 16 C 0.0857 0.8845 0.0 0
M  V30 17 C 1.3032 0.0 0.0 0 CFG=2
M  V30 18 C 3.6849 -0.5062 0.0 0 CFG=1
M  V30 19 C 1.4605 -1.4966 0.0 0 CFG=2
M  V30 20 C 0.0042 -0.5919 0.0 0
M  V30 21 C 2.9324 -1.8094 0.0 0 CFG=1
M  V30 22 C 4.4373 -1.8094 0.0 0
M  V30 23 O -0.0135 -1.2639 0.0 0
M  V30 24 C 1.6178 -2.9932 0.0 0
M  V30 25 C -0.7638 -2.4869 0.0 0
M  V30 26 C 0.243 -3.6052 0.0 0
M  V30 27 O -2.2604 -2.6442 0.0 0
M  V30 END ATOM
M  V30 BEGIN BOND
M  V30 1 2 1 2
M  V30 2 1 2 3
M  V30 3 1 2 4
M  V30 4 2 3 5
M  V30 5 1 4 6
M  V30 6 1 5 7
M  V30 7 1 5 8
M  V30 8 1 7 9
M  V30 9 1 7 10 CFG=3
M  V30 10 1 8 11
M  V30 11 1 8 12 CFG=3
M  V30 12 1 13 9 CFG=1
M  V30 13 1 9 14 CFG=3
M  V30 14 1 15 13 CFG=3
M  V30 15 1 14 16
M  V30 16 1 15 17
M  V30 17 1 15 18
M  V30 18 1 17 19
M  V30 19 1 17 20 CFG=3
M  V30 20 1 18 21
M  V30 21 1 18 22 CFG=3
M  V30 22 1 19 23
M  V30 23 1 19 24 CFG=1
M  V30 24 1 23 25
M  V30 25 1 24 26
M  V30 26 2 25 27
M  V30 27 1 6 7
M  V30 28 1 11 12 CFG=3
M  V30 29 1 11 13
M  V30 30 1 16 17
M  V30 31 1 19 21
M  V30 32 1 21 22 CFG=3
M  V30 33 1 25 26
M  V30 END BOND
M  V30 BEGIN COLLECTION
M  V30 MDLV30/STEABS ATOMS=(10 7 8 9 11 13 15 17 18 19 21)
M  V30 END COLLECTION
M  V30 END CTAB
M  END
>  <Drug Name>
Drospirenone

>  <Carbon Count>
24

>  <SMILES String>
O=C1O[C@@]2(CC1)[C@@H]3[C@@H](C3)[C@@]4([H])[C@]5([H])[C@@H]6[C@@H](C6)C7=CC(CC[C@]7(C)[C@@]5([H])CC[C@@]42C)=O

$$$$
Enalapril
Actelion Java MolfileCreator 2.0

  0  0  0  0  0  0              0 V3000
M  V30 BEGIN CTAB
M  V30 COUNTS 27 28 0 0 0
M  V30 BEGIN ATOM
M  V30 1 O 13.501 1.7908 0.0 0
M  V30 2 C 12.0744 1.3273 0.0 0
M  V30 3 O 10.9597 2.331 0.0 0
M  V30 4 C 11.7626 -0.1398 0.0 0 CFG=1
M  V30 5 N 10.3923 -0.75 0.0 0
M  V30 6 C 12.7663 -1.2546 0.0 0
M  V30 7 C 9.0932 0.0 0.0 0
M  V30 8 C 10.549 -2.2417 0.0 0
M  V30 9 C 12.0163 -2.5536 0.0 0
M  V30 10 O 9.0932 1.4999 0.0 0
M  V30 11 C 7.7942 -0.75 0.0 0 CFG=1
M  V30 12 N 6.4951 0.0 0.0 0
M  V30 13 C 7.7942 -2.25 0.0 0
M  V30 14 C 5.1961 -0.75 0.0 0 CFG=2
M  V30 15 C 3.8971 0.0 0.0 0
M  V30 16 C 5.1961 -2.25 0.0 0
M  V30 17 O 3.8971 1.5 0.0 0
M  V30 18 O 2.598 -0.75 0.0 0
M  V30 19 C 3.8971 -3.0 0.0 0
M  V30 20 C 1.299 0.0 0.0 0
M  V30 21 C 3.8971 -4.5 0.0 0
M  V30 22 C 0.0 -0.75 0.0 0
M  V30 23 C 2.598 -5.2499 0.0 0
M  V30 24 C 5.1961 -5.25 0.0 0
M  V30 25 C 2.598 -6.75 0.0 0
M  V30 26 C 5.1961 -6.75 0.0 0
M  V30 27 C 3.8971 -7.5 0.0 0
M  V30 END ATOM
M  V30 BEGIN BOND
M  V30 1 2 1 2
M  V30 2 1 2 3
M  V30 3 1 4 2 CFG=3
M  V30 4 1 4 5
M  V30 5 1 4 6
M  V30 6 1 5 7
M  V30 7 1 5 8
M  V30 8 1 6 9
M  V30 9 2 7 10
M  V30 10 1 7 11
M  V30 11 1 11 12
M  V30 12 1 11 13 CFG=3
M  V30 13 1 14 12 CFG=1
M  V30 14 1 14 15
M  V30 15 1 14 16
M  V30 16 2 15 17
M  V30 17 1 15 18
M  V30 18 1 16 19
M  V30 19 1 18 20
M  V30 20 1 19 21
M  V30 21 1 20 22
M  V30 22 2 21 23
M  V30 23 1 21 24
M  V30 24 1 23 25
M  V30 25 2 24 26
M  V30 26 2 25 27
M  V30 27 1 8 9
M  V30 28 1 26 27
M  V30 END BOND
M  V30 BEGIN COLLECTION
M  V30 MDLV30/STEABS ATOMS=(3 4 11 14)
M  V30 END COLLECTION
M  V30 END CTAB
M  END
>  <Drug Name>
Enalapril

>  <Carbon Count>
20

>  <SMILES String>
O=C([C@H]1N(CCC1)C([C@@H](N[C@@H](CCC2=CC=CC=C2)C(OCC)=O)C)=O)O

$$$$
Clindamycin
Actelion Java MolfileCreator 2.0

  0  0  0  0  0  0              0 V3000
M  V30 BEGIN CTAB
M  V30 COUNTS 27 28 0 0 0
M  V30 BEGIN ATOM
M  V30 1 Cl 4.3301 0.0 0.0 0
M  V30 2 C 3.4641 -0.5 0.0 0 CFG=2
M  V30 3 C 2.598 0.0 0.0 0 CFG=1
M  V30 4 C 3.4641 -1.5 0.0 0
M  V30 5 N 1.732 -0.5 0.0 0
M  V30 6 C 2.598 1.0 0.0 0 CFG=1
M  V30 7 C 0.866 0.0 0.0 0
M  V30 8 O 1.732 1.5 0.0 0
M  V30 9 C 3.4641 1.5 0.0 0 CFG=2
M  V30 10 O 0.866 1.0 0.0 0
M  V30 11 C 0.0 -0.5 0.0 0 CFG=1
M  V30 12 C 1.732 2.5 0.0 0 CFG=2
M  V30 13 O 4.3301 1.0 0.0 0
M  V30 14 C 3.4641 2.5 0.0 0 CFG=1
M  V30 15 N -0.9135 -0.0932 0.0 0
M  V30 16 C -0.1045 -1.4945 0.0 0
M  V30 17 S 0.866 3.0 0.0 0
M  V30 18 C 2.598 3.0 0.0 0 CFG=1
M  V30 19 O 4.3301 3.0 0.0 0
M  V30 20 C -1.5826 -0.8364 0.0 0
M  V30 21 C -1.1214 0.8848 0.0 0
M  V30 22 C -1.0826 -1.7024 0.0 0 CFG=2
M  V30 23 C 0.866 4.0 0.0 0
M  V30 24 O 2.598 4.0 0.0 0
M  V30 25 C -1.4894 -2.6159 0.0 0
M  V30 26 C -2.4839 -2.7205 0.0 0
M  V30 27 C -2.8906 -3.634 0.0 0
M  V30 END ATOM
M  V30 BEGIN BOND
M  V30 1 1 2 1 CFG=1
M  V30 2 1 2 3
M  V30 3 1 2 4
M  V30 4 1 3 5 CFG=1
M  V30 5 1 3 6
M  V30 6 2 5 7 CFG=2
M  V30 7 1 6 8 CFG=1
M  V30 8 1 6 9
M  V30 9 1 7 10
M  V30 10 1 11 7 CFG=3
M  V30 11 1 8 12
M  V30 12 1 9 13 CFG=1
M  V30 13 1 9 14
M  V30 14 1 11 15
M  V30 15 1 11 16
M  V30 16 1 12 17 CFG=3
M  V30 17 1 12 18
M  V30 18 1 14 19 CFG=1
M  V30 19 1 15 20
M  V30 20 1 15 21
M  V30 21 1 16 22
M  V30 22 1 17 23
M  V30 23 1 18 24 CFG=3
M  V30 24 1 22 25 CFG=1
M  V30 25 1 25 26
M  V30 26 1 26 27
M  V30 27 1 14 18
M  V30 28 1 20 22
M  V30 END BOND
M  V30 BEGIN COLLECTION
M  V30 MDLV30/STEABS ATOMS=(9 2 3 6 9 11 12 14 18 22)
M  V30 END COLLECTION
M  V30 END CTAB
M  END
>  <Drug Name>
Clindamycin

>  <Carbon Count>
18

>  <SMILES String>
O=C([C@@]1([H])N(C)C[C@H](CCC)C1)N[C@H](C(C)Cl)[C@H]([C@H](O)[C@H](O)[C@H]2O)O[C@@H]2SC

$$$$
Fluorometholone
Actelion Java MolfileCreator 2.0

  0  0  0  0  0  0              0 V3000
M  V30 BEGIN CTAB
M  V30 COUNTS 27 30 0 0 0
M  V30 BEGIN ATOM
M  V30 1 F -3.2169 4.2065 0.0 0
M  V30 2 C -1.9289 4.628 0.0 0 CFG=2
M  V30 3 C -2.9363 5.7469 0.0 0 CFG=2
M  V30 4 C -2.3941 3.1962 0.0 0 CFG=1
M  V30 5 C -0.4563 4.9411 0.0 0 CFG=2
M  V30 6 C -2.4711 7.1787 0.0 0
M  V30 7 C -4.4089 5.4338 0.0 0
M  V30 8 C -3.7779 4.315 0.0 0
M  V30 9 O -3.8668 2.8832 0.0 0
M  V30 10 C -1.3867 2.0774 0.0 0
M  V30 11 C 0.551 3.8222 0.0 0 CFG=1
M  V30 12 C 0.0089 6.3729 0.0 0
M  V30 13 C -3.4785 8.2975 0.0 0
M  V30 14 C -0.9984 7.4917 0.0 0 CFG=2
M  V30 15 C -5.4163 6.5527 0.0 0
M  V30 16 C 0.0858 2.3904 0.0 0 CFG=1
M  V30 17 C 2.0565 3.8222 0.0 0
M  V30 18 C -4.9511 7.9845 0.0 0
M  V30 19 C -0.5332 8.9236 0.0 0
M  V30 20 C 1.3038 1.5055 0.0 0 CFG=1
M  V30 21 C -0.3477 0.9787 0.0 0
M  V30 22 C 2.5218 2.3904 0.0 0
M  V30 23 O -5.9585 9.1033 0.0 0
M  V30 24 O 0.2035 0.7001 0.0 0
M  V30 25 C 1.3038 0.0 0.0 0
M  V30 26 O 2.6076 -0.7527 0.0 0
M  V30 27 C 0.0 -0.7527 0.0 0
M  V30 END ATOM
M  V30 BEGIN BOND
M  V30 1 1 2 1 CFG=1
M  V30 2 1 2 3
M  V30 3 1 2 4
M  V30 4 1 2 5
M  V30 5 1 3 6
M  V30 6 1 3 7
M  V30 7 1 3 8 CFG=3
M  V30 8 1 4 9 CFG=3
M  V30 9 1 4 10
M  V30 10 1 5 11
M  V30 11 1 5 12 CFG=1
M  V30 12 2 6 13
M  V30 13 1 6 14
M  V30 14 2 7 15
M  V30 15 1 10 16
M  V30 16 1 11 17 CFG=3
M  V30 17 1 13 18
M  V30 18 1 14 19 CFG=1
M  V30 19 1 16 20
M  V30 20 1 16 21 CFG=3
M  V30 21 1 17 22
M  V30 22 2 18 23
M  V30 23 1 20 24 CFG=1
M  V30 24 1 20 25
M  V30 25 2 25 26
M  V30 26 1 25 27
M  V30 27 1 11 16
M  V30 28 1 12 14
M  V30 29 1 15 18
M  V30 30 1 20 22
M  V30 END BOND
M  V30 BEGIN COLLECTION
M  V30 MDLV30/STEABS ATOMS=(8 2 3 4 5 11 14 16 20)
M  V30 END COLLECTION
M  V30 END CTAB
M  END
>  <Drug Name>
Fluorometholone

>  <Carbon Count>
22

>  <SMILES String>
[H][C@]12[C@]3([H])C[C@H](C)C4=CC(C=C[C@]4(C)[C@@]3(F)[C@@H](O)C[C@]1(C)[C@](C(C)=O)(O)CC2)=O

$$$$
Methylprednisolone
Actelion Java MolfileCreator 2.0

  0  0  0  0  0  0              0 V3000
M  V30 BEGIN CTAB
M  V30 COUNTS 27 30 0 0 0
M  V30 BEGIN ATOM
M  V30 1 O 9.871 -9.8572 0.0 0
M  V30 2 C 8.8635 -8.7382 0.0 0
M  V30 3 C 7.3907 -9.0513 0.0 0
M  V30 4 C 9.3288 -7.3062 0.0 0
M  V30 5 C 6.3832 -7.9323 0.0 0
M  V30 6 C 8.3213 -6.1873 0.0 0
M  V30 7 C 6.8485 -6.5004 0.0 0 CFG=2
M  V30 8 C 4.9105 -8.2454 0.0 0 CFG=2
M  V30 9 C 5.841 -5.3814 0.0 0 CFG=1
M  V30 10 C 7.3138 -5.0684 0.0 0
M  V30 11 C 3.903 -7.1265 0.0 0
M  V30 12 C 4.4452 -9.6774 0.0 0
M  V30 13 C 6.3063 -3.9494 0.0 0 CFG=1
M  V30 14 C 4.3682 -5.6945 0.0 0 CFG=1
M  V30 15 O 7.7791 -3.6364 0.0 0
M  V30 16 C 5.2988 -2.8305 0.0 0
M  V30 17 C 3.3607 -4.5755 0.0 0 CFG=1
M  V30 18 C 3.826 -3.1435 0.0 0 CFG=1
M  V30 19 C 1.855 -4.5755 0.0 0
M  V30 20 C 2.6079 -2.2585 0.0 0 CFG=1
M  V30 21 C 4.2596 -1.7317 0.0 0
M  V30 22 C 1.3898 -3.1435 0.0 0
M  V30 23 O 3.7083 -1.4531 0.0 0
M  V30 24 C 2.6079 -0.7528 0.0 0
M  V30 25 O 3.9119 0.0 0.0 0
M  V30 26 C 1.3039 0.0 0.0 0
M  V30 27 O 0.0 -0.7528 0.0 0
M  V30 END ATOM
M  V30 BEGIN BOND
M  V30 1 2 1 2
M  V30 2 1 2 3
M  V30 3 1 2 4
M  V30 4 2 3 5
M  V30 5 2 4 6
M  V30 6 1 5 7
M  V30 7 1 5 8
M  V30 8 1 7 9
M  V30 9 1 7 10 CFG=3
M  V30 10 1 8 11
M  V30 11 1 8 12 CFG=1
M  V30 12 1 9 13 CFG=3
M  V30 13 1 9 14
M  V30 14 1 13 15 CFG=3
M  V30 15 1 13 16
M  V30 16 1 14 17
M  V30 17 1 16 18
M  V30 18 1 17 19 CFG=3
M  V30 19 1 18 20
M  V30 20 1 18 21 CFG=3
M  V30 21 1 19 22
M  V30 22 1 20 23 CFG=1
M  V30 23 1 20 24
M  V30 24 2 24 25
M  V30 25 1 24 26
M  V30 26 1 26 27
M  V30 27 1 6 7
M  V30 28 1 14 11 CFG=1
M  V30 29 1 17 18
M  V30 30 1 20 22
M  V30 END BOND
M  V30 BEGIN COLLECTION
M  V30 MDLV30/STEABS ATOMS=(8 7 8 9 13 14 17 18 20)
M  V30 END COLLECTION
M  V30 END CTAB
M  END
>  <Drug Name>
Methylprednisolone

>  <Carbon Count>
22

>  <SMILES String>
O=C1C=C[C@@]2(C)C([C@@H](C)C[C@]3([H])[C@]2([H])[C@@H](O)C[C@@]4(C)[C@@]3([H])CC[C@]4(O)C(CO)=O)=C1

$$$$
Loratadine
Actelion Java MolfileCreator 2.0

  0  0  0  0  0  0              0 V3000
M  V30 BEGIN CTAB
M  V30 COUNTS 27 30 0 0 0
M  V30 BEGIN ATOM
M  V30 1 Cl 7.9798 -8.8829 0.0 0
M  V30 2 C 8.3136 -7.4205 0.0 0
M  V30 3 C 9.7469 -6.9784 0.0 0
M  V30 4 C 7.214 -6.4003 0.0 0
M  V30 5 C 10.0807 -5.516 0.0 0
M  V30 6 C 7.5478 -4.9379 0.0 0
M  V30 7 C 8.9811 -4.4958 0.0 0
M  V30 8 C 11.5639 -5.2925 0.0 0
M  V30 9 C 9.0932 -3.0 0.0 0
M  V30 10 C 12.3139 -3.9934 0.0 0
M  V30 11 C 10.3326 -2.155 0.0 0
M  V30 12 C 7.7942 -2.2499 0.0 0
M  V30 13 C 11.7659 -2.5971 0.0 0
M  V30 14 N 9.9988 -0.6926 0.0 0
M  V30 15 C 7.7942 -0.75 0.0 0
M  V30 16 C 6.4951 -2.9999 0.0 0
M  V30 17 C 12.8655 -1.5768 0.0 0
M  V30 18 C 11.0984 0.3276 0.0 0
M  V30 19 C 6.4951 0.0 0.0 0
M  V30 20 C 5.1961 -2.25 0.0 0
M  V30 21 C 12.5317 -0.1145 0.0 0
M  V30 22 N 5.1961 -0.75 0.0 0
M  V30 23 C 3.8971 0.0 0.0 0
M  V30 24 O 3.8971 1.5 0.0 0
M  V30 25 O 2.598 -0.75 0.0 0
M  V30 26 C 1.299 0.0 0.0 0
M  V30 27 C 0.0 -0.75 0.0 0
M  V30 END ATOM
M  V30 BEGIN BOND
M  V30 1 1 1 2
M  V30 2 2 2 3
M  V30 3 1 2 4
M  V30 4 1 3 5
M  V30 5 2 4 6
M  V30 6 2 5 7
M  V30 7 1 5 8
M  V30 8 1 7 9
M  V30 9 1 8 10
M  V30 10 1 9 11
M  V30 11 2 9 12
M  V30 12 1 10 13
M  V30 13 1 11 14
M  V30 14 1 12 15
M  V30 15 1 12 16
M  V30 16 1 13 17
M  V30 17 2 14 18
M  V30 18 1 15 19
M  V30 19 1 16 20
M  V30 20 2 17 21
M  V30 21 1 19 22
M  V30 22 1 22 23
M  V30 23 2 23 24
M  V30 24 1 23 25
M  V30 25 1 25 26
M  V30 26 1 26 27
M  V30 27 1 6 7
M  V30 28 2 11 13
M  V30 29 1 18 21
M  V30 30 1 20 22
M  V30 END BOND
M  V30 END CTAB
M  END
>  <Drug Name>
Loratadine

>  <Carbon Count>
22

>  <SMILES String>
ClC1=CC=C2C(CCC3=C(/C2=C4CCN(CC\4)C(OCC)=O)N=CC=C3)=C1

$$$$
Tiotropium Bromide
Actelion Java MolfileCreator 2.0

  0  0  0  0  0  0              0 V3000
M  V30 BEGIN CTAB
M  V30 COUNTS 28 30 0 0 0
M  V30 BEGIN ATOM
M  V30 1 Br -3.4341 -6.6971 0.0 0 CHG=-1
M  V30 2 S -3.8723 0.3575 0.0 0
M  V30 3 C -3.3132 -0.4715 0.0 0
M  V30 4 C -3.2567 1.1455 0.0 0
M  V30 5 C -2.4526 -0.0757 0.0 0
M  V30 6 C -3.6552 -1.4111 0.0 0
M  V30 7 C -2.317 0.8035 0.0 0
M  V30 8 O -4.64 -1.5848 0.0 0
M  V30 9 C -2.6704 -1.2375 0.0 0
M  V30 10 C -3.0124 -2.1772 0.0 0
M  V30 11 S -1.8799 -1.8635 0.0 0
M  V30 12 C -2.1816 -0.3987 0.0 0
M  V30 13 O -2.1685 -2.1421 0.0 0
M  V30 14 O -3.3544 -3.1169 0.0 0
M  V30 15 C -1.0681 -1.4627 0.0 0
M  V30 16 C -1.2417 -0.4779 0.0 0
M  V30 17 C -2.7116 -3.8829 0.0 0 CFG=2
M  V30 18 C -1.7054 -3.6924 0.0 0
M  V30 19 C -3.074 -4.8407 0.0 0
M  V30 20 C -0.8946 -4.7897 0.0 0 CFG=1
M  V30 21 C -2.1341 -5.8298 0.0 0 CFG=2
M  V30 22 N -1.8922 -4.8595 0.0 0 CHG=1
M  V30 23 C -0.52 -5.7169 0.0 0 CFG=2
M  V30 24 C -1.2861 -6.3597 0.0 0 CFG=1
M  V30 25 C -2.0762 -3.9856 0.0 0
M  V30 26 C -2.7208 -4.5265 0.0 0
M  V30 27 O -0.3464 -6.7017 0.0 0
M  V30 28 O 0.9053 -2.8146 0.0 0
M  V30 END ATOM
M  V30 BEGIN BOND
M  V30 1 1 2 3
M  V30 2 1 2 4
M  V30 3 2 3 5
M  V30 4 1 3 6
M  V30 5 2 4 7
M  V30 6 1 6 8
M  V30 7 1 6 9
M  V30 8 1 6 10
M  V30 9 1 9 11
M  V30 10 2 9 12
M  V30 11 2 10 13
M  V30 12 1 10 14
M  V30 13 1 11 15
M  V30 14 1 12 16
M  V30 15 1 17 14 CFG=3
M  V30 16 1 17 18
M  V30 17 1 17 19
M  V30 18 1 18 20
M  V30 19 1 19 21
M  V30 20 1 20 22 CFG=1
M  V30 21 1 20 23
M  V30 22 1 21 24
M  V30 23 1 22 25
M  V30 24 1 22 26
M  V30 25 1 23 27 CFG=1
M  V30 26 1 5 7
M  V30 27 2 15 16
M  V30 28 1 21 22 CFG=1
M  V30 29 1 23 24
M  V30 30 1 24 27 CFG=1
M  V30 END BOND
M  V30 BEGIN COLLECTION
M  V30 MDLV30/STEABS ATOMS=(5 17 20 21 23 24)
M  V30 END COLLECTION
M  V30 END CTAB
M  END
>  <Drug Name>
Tiotropium Bromide

>  <Carbon Count>
19

>  <SMILES String>
C[N+]1(C)[C@@H]2CC(OC(C(C3=CC=CS3)(O)C4=CC=CS4)=O)C[C@H]1[C@H]5[C@@H]2O5.[Br-]

$$$$
Norgestimate
Actelion Java MolfileCreator 2.0

  0  0  0  0  0  0              0 V3000
M  V30 BEGIN CTAB
M  V30 COUNTS 27 30 0 0 0
M  V30 BEGIN ATOM
M  V30 1 O 1.732 1.4999 0.0 0
M  V30 2 C 0.9061 0.9567 0.0 0
M  V30 3 O 0.816 -0.1737 0.0 0
M  V30 4 C 0.0 1.5 0.0 0
M  V30 5 C 0.0 -0.5 0.0 0 CFG=2
M  V30 6 C 0.8386 -1.0446 0.0 0
M  V30 7 C -0.0523 0.4986 0.0 0 CFG=2
M  V30 8 C -0.9335 -0.8583 0.0 0
M  V30 9 C 1.6773 -1.5892 0.0 0
M  V30 10 C -1.0182 0.7574 0.0 0 CFG=1
M  V30 11 C 0.6414 1.3151 0.0 0
M  V30 12 C 0.9042 0.133 0.0 0
M  V30 13 C -1.5629 -0.0812 0.0 0
M  V30 14 C -1.277 1.7233 0.0 0 CFG=1
M  V30 15 C 0.3959 2.1716 0.0 0
M  V30 16 C 1.6583 0.7695 0.0 0
M  V30 17 C -0.5699 2.4304 0.0 0 CFG=2
M  V30 18 C -2.243 1.9821 0.0 0
M  V30 19 C -0.8287 3.3964 0.0 0 CFG=2
M  V30 20 C -2.5018 2.9481 0.0 0
M  V30 21 C -1.7947 3.6552 0.0 0
M  V30 22 C -0.1216 4.1035 0.0 0
M  V30 23 C -2.0535 4.6211 0.0 0
M  V30 24 C -0.3805 5.0694 0.0 0
M  V30 25 C -1.3464 5.3282 0.0 0
M  V30 26 N -1.6052 6.2941 0.0 0
M  V30 27 O -0.8981 7.0012 0.0 0
M  V30 END ATOM
M  V30 BEGIN BOND
M  V30 1 2 1 2
M  V30 2 1 2 3
M  V30 3 1 2 4
M  V30 4 1 5 3 CFG=1
M  V30 5 1 5 6
M  V30 6 1 5 7
M  V30 7 1 5 8
M  V30 8 3 6 9
M  V30 9 1 7 10
M  V30 10 1 7 11
M  V30 11 1 7 12 CFG=1
M  V30 12 1 8 13
M  V30 13 1 10 14
M  V30 14 1 11 15
M  V30 15 1 12 16
M  V30 16 1 14 17
M  V30 17 1 14 18 CFG=3
M  V30 18 1 17 19
M  V30 19 1 18 20
M  V30 20 1 19 21
M  V30 21 1 19 22 CFG=3
M  V30 22 2 21 23
M  V30 23 1 22 24
M  V30 24 1 23 25
M  V30 25 2 25 26
M  V30 26 1 26 27
M  V30 27 1 10 13 CFG=1
M  V30 28 1 17 15 CFG=1
M  V30 29 1 20 21
M  V30 30 1 24 25
M  V30 END BOND
M  V30 BEGIN COLLECTION
M  V30 MDLV30/STEABS ATOMS=(6 5 7 10 14 17 19)
M  V30 END COLLECTION
M  V30 END CTAB
M  END
>  <Drug Name>
Norgestimate

>  <Carbon Count>
23

>  <SMILES String>
O/N=C1CC[C@@]2([H])C(CC[C@]3([H])[C@]2([H])CC[C@@]4(CC)[C@@]3([H])CC[C@@]4(OC(C)=O)C#C)=C\1

$$$$
Perphenazine
Actelion Java MolfileCreator 2.0

  0  0  0  0  0  0              0 V3000
M  V30 BEGIN CTAB
M  V30 COUNTS 27 30 0 0 0
M  V30 BEGIN ATOM
M  V30 1 Cl 5.1961 2.4999 0.0 0
M  V30 2 C 5.1961 1.4999 0.0 0
M  V30 3 C 4.3301 1.0 0.0 0
M  V30 4 C 6.0621 0.9999 0.0 0
M  V30 5 C 4.3301 0.0 0.0 0
M  V30 6 C 6.0621 0.0 0.0 0
M  V30 7 N 3.4641 -0.5 0.0 0
M  V30 8 C 5.1961 -0.5 0.0 0
M  V30 9 C 3.4641 -1.5 0.0 0
M  V30 10 C 2.598 0.0 0.0 0
M  V30 11 S 5.1961 -1.5 0.0 0
M  V30 12 C 4.3301 -2.0 0.0 0
M  V30 13 C 2.598 -1.9999 0.0 0
M  V30 14 C 1.732 -0.5 0.0 0
M  V30 15 C 4.3301 -3.0 0.0 0
M  V30 16 C 2.598 -2.9999 0.0 0
M  V30 17 C 0.866 0.0 0.0 0
M  V30 18 C 3.4641 -3.5 0.0 0
M  V30 19 N 0.0 -0.5 0.0 0
M  V30 20 C -0.866 0.0 0.0 0
M  V30 21 C 0.0 -1.4999 0.0 0
M  V30 22 C -1.732 -0.4999 0.0 0
M  V30 23 C -0.866 -1.9999 0.0 0
M  V30 24 N -1.732 -1.4999 0.0 0
M  V30 25 C -2.598 -1.9999 0.0 0
M  V30 26 C -3.4641 -1.4999 0.0 0
M  V30 27 O -4.3301 -1.9999 0.0 0
M  V30 END ATOM
M  V30 BEGIN BOND
M  V30 1 1 1 2
M  V30 2 2 2 3
M  V30 3 1 2 4
M  V30 4 1 3 5
M  V30 5 2 4 6
M  V30 6 1 5 7
M  V30 7 2 5 8
M  V30 8 1 7 9
M  V30 9 1 7 10
M  V30 10 1 8 11
M  V30 11 2 9 12
M  V30 12 1 9 13
M  V30 13 1 10 14
M  V30 14 1 12 15
M  V30 15 2 13 16
M  V30 16 1 14 17
M  V30 17 2 15 18
M  V30 18 1 17 19
M  V30 19 1 19 20
M  V30 20 1 19 21
M  V30 21 1 20 22
M  V30 22 1 21 23
M  V30 23 1 22 24
M  V30 24 1 24 25
M  V30 25 1 25 26
M  V30 26 1 26 27
M  V30 27 1 6 8
M  V30 28 1 11 12
M  V30 29 1 16 18
M  V30 30 1 23 24
M  V30 END BOND
M  V30 END CTAB
M  END
>  <Drug Name>
Perphenazine

>  <Carbon Count>
21

>  <SMILES String>
ClC1=CC2=C(C=C1)SC3=C(C=CC=C3)N2CCCN4CCN(CCO)CC4

$$$$
Azelastine
Actelion Java MolfileCreator 2.0

  0  0  0  0  0  0              0 V3000
M  V30 BEGIN CTAB
M  V30 COUNTS 27 30 0 0 0
M  V30 BEGIN ATOM
M  V30 1 Cl 4.3301 -1.9999 0.0 0
M  V30 2 C 3.4641 -1.4999 0.0 0
M  V30 3 C 3.4641 -0.5 0.0 0
M  V30 4 C 2.598 -1.9999 0.0 0
M  V30 5 C 2.598 0.0 0.0 0
M  V30 6 C 1.732 -1.5 0.0 0
M  V30 7 C 1.732 -0.5 0.0 0
M  V30 8 C 0.866 0.0 0.0 0
M  V30 9 C 0.0 -0.5 0.0 0
M  V30 10 N -0.866 0.0 0.0 0
M  V30 11 C 0.0 -1.4999 0.0 0
M  V30 12 N -1.732 -0.4999 0.0 0
M  V30 13 C -0.866 -1.9999 0.0 0
M  V30 14 C 0.866 -1.9999 0.0 0
M  V30 15 C -1.732 -1.4999 0.0 0
M  V30 16 C -2.598 0.0 0.0 0 CFG=2
M  V30 17 C -0.866 -2.9999 0.0 0
M  V30 18 C 0.866 -3.0 0.0 0
M  V30 19 O -2.598 -1.9999 0.0 0
M  V30 20 C -2.5233 0.9972 0.0 0
M  V30 21 C -3.4243 -0.5633 0.0 0
M  V30 22 C 0.0 -3.4999 0.0 0
M  V30 23 C -3.2563 1.6773 0.0 0
M  V30 24 C -4.3798 -0.2685 0.0 0
M  V30 25 N -4.2452 1.5283 0.0 0
M  V30 26 C -4.7452 0.6623 0.0 0
M  V30 27 C -4.8085 2.3545 0.0 0
M  V30 END ATOM
M  V30 BEGIN BOND
M  V30 1 1 1 2
M  V30 2 2 2 3
M  V30 3 1 2 4
M  V30 4 1 3 5
M  V30 5 2 4 6
M  V30 6 2 5 7
M  V30 7 1 7 8
M  V30 8 1 8 9
M  V30 9 2 9 10
M  V30 10 1 9 11
M  V30 11 1 10 12
M  V30 12 2 11 13
M  V30 13 1 11 14
M  V30 14 1 12 15
M  V30 15 1 16 12 CFG=1
M  V30 16 1 13 17
M  V30 17 2 14 18
M  V30 18 2 15 19
M  V30 19 1 16 20
M  V30 20 1 16 21
M  V30 21 2 17 22
M  V30 22 1 20 23
M  V30 23 1 21 24
M  V30 24 1 23 25
M  V30 25 1 24 26
M  V30 26 1 25 27
M  V30 27 1 6 7
M  V30 28 1 13 15
M  V30 29 1 18 22
M  V30 30 1 25 26
M  V30 END BOND
M  V30 BEGIN COLLECTION
M  V30 MDLV30/STERAC1 ATOMS=(1 16)
M  V30 END COLLECTION
M  V30 END CTAB
M  END
>  <Drug Name>
Azelastine

>  <Carbon Count>
22

>  <SMILES String>
CN1CCCC(N2N=C(C3=CC=CC=C3C2=O)CC4=CC=C(C=C4)Cl)CC1

$$$$
Cetirizine
Actelion Java MolfileCreator 2.0

  0  0  0  0  0  0              0 V3000
M  V30 BEGIN CTAB
M  V30 COUNTS 27 29 0 0 0
M  V30 BEGIN ATOM
M  V30 1 Cl 11.2583 0.0 0.0 0
M  V30 2 C 10.3923 -0.5 0.0 0
M  V30 3 C 9.5262 0.0 0.0 0
M  V30 4 C 10.3923 -1.5 0.0 0
M  V30 5 C 8.6602 -0.5 0.0 0
M  V30 6 C 9.5262 -2.0 0.0 0
M  V30 7 C 8.6602 -1.5 0.0 0
M  V30 8 C 7.7942 -2.0 0.0 0 CFG=1
M  V30 9 N 6.9282 -1.5 0.0 0
M  V30 10 C 7.7942 -3.0 0.0 0
M  V30 11 C 6.9282 -0.5 0.0 0
M  V30 12 C 6.0621 -2.0 0.0 0
M  V30 13 C 6.9282 -3.4999 0.0 0
M  V30 14 C 8.6602 -3.5 0.0 0
M  V30 15 C 6.0621 0.0 0.0 0
M  V30 16 C 5.1961 -1.5 0.0 0
M  V30 17 C 6.9282 -4.5 0.0 0
M  V30 18 C 8.6602 -4.5 0.0 0
M  V30 19 N 5.1961 -0.5 0.0 0
M  V30 20 C 7.7942 -5.0 0.0 0
M  V30 21 C 4.3301 0.0 0.0 0
M  V30 22 C 3.4641 -0.5 0.0 0
M  V30 23 O 2.598 0.0 0.0 0
M  V30 24 C 1.732 -0.5 0.0 0
M  V30 25 C 0.866 0.0 0.0 0
M  V30 26 O 0.866 1.0 0.0 0
M  V30 27 O 0.0 -0.5 0.0 0
M  V30 END ATOM
M  V30 BEGIN BOND
M  V30 1 1 1 2
M  V30 2 2 2 3
M  V30 3 1 2 4
M  V30 4 1 3 5
M  V30 5 2 4 6
M  V30 6 2 5 7
M  V30 7 1 7 8
M  V30 8 1 8 9 CFG=3
M  V30 9 1 8 10
M  V30 10 1 9 11
M  V30 11 1 9 12
M  V30 12 2 10 13
M  V30 13 1 10 14
M  V30 14 1 11 15
M  V30 15 1 12 16
M  V30 16 1 13 17
M  V30 17 2 14 18
M  V30 18 1 15 19
M  V30 19 2 17 20
M  V30 20 1 19 21
M  V30 21 1 21 22
M  V30 22 1 22 23
M  V30 23 1 23 24
M  V30 24 1 24 25
M  V30 25 2 25 26
M  V30 26 1 25 27
M  V30 27 1 6 7
M  V30 28 1 16 19
M  V30 29 1 18 20
M  V30 END BOND
M  V30 BEGIN COLLECTION
M  V30 MDLV30/STERAC1 ATOMS=(1 8)
M  V30 END COLLECTION
M  V30 END CTAB
M  END
>  <Drug Name>
Cetirizine

>  <Carbon Count>
21

>  <SMILES String>
O=C(COCCN1CCN(CC1)C(C2=CC=CC=C2)C3=CC=C(Cl)C=C3)O

$$$$
Bendroflumethiazide
Actelion Java MolfileCreator 2.0

  0  0  0  0  0  0              0 V3000
M  V30 BEGIN CTAB
M  V30 COUNTS 27 29 0 0 0
M  V30 BEGIN ATOM
M  V30 1 S 5.2228 -0.7538 0.0 0
M  V30 2 O 6.7305 -0.7538 0.0 0
M  V30 3 O 5.9767 0.5518 0.0 0
M  V30 4 N 3.9171 0.0 0.0 0
M  V30 5 C 5.2228 -2.2615 0.0 0
M  V30 6 C 2.6114 -0.7538 0.0 0 CFG=2
M  V30 7 C 3.9171 -3.0154 0.0 0
M  V30 8 C 6.5286 -3.0154 0.0 0
M  V30 9 N 2.6114 -2.2615 0.0 0
M  V30 10 C 1.3057 0.0 0.0 0
M  V30 11 C 3.9171 -4.5231 0.0 0
M  V30 12 C 6.5286 -4.5231 0.0 0
M  V30 13 C 0.0 -0.7538 0.0 0
M  V30 14 C 5.2228 -5.277 0.0 0
M  V30 15 S 7.8343 -5.277 0.0 0
M  V30 16 C -1.3057 0.0 0.0 0
M  V30 17 C 0.0 -2.2615 0.0 0
M  V30 18 C 5.2228 -6.7847 0.0 0
M  V30 19 O 7.1562 -6.539 0.0 0
M  V30 20 O 8.5881 -3.9712 0.0 0
M  V30 21 N 9.14 -6.0308 0.0 0
M  V30 22 C -2.6114 -0.7538 0.0 0
M  V30 23 C -1.3057 -3.0154 0.0 0
M  V30 24 F 6.5791 -6.8721 0.0 0
M  V30 25 F 5.2228 -8.2924 0.0 0
M  V30 26 F 3.7151 -6.7847 0.0 0
M  V30 27 C -2.6114 -2.2615 0.0 0
M  V30 END ATOM
M  V30 BEGIN BOND
M  V30 1 2 1 2
M  V30 2 2 1 3
M  V30 3 1 1 4
M  V30 4 1 1 5
M  V30 5 1 4 6
M  V30 6 2 5 7
M  V30 7 1 5 8
M  V30 8 1 6 9
M  V30 9 1 6 10 CFG=3
M  V30 10 1 7 11
M  V30 11 2 8 12
M  V30 12 1 10 13
M  V30 13 2 11 14
M  V30 14 1 12 15
M  V30 15 2 13 16
M  V30 16 1 13 17
M  V30 17 1 14 18
M  V30 18 2 15 19
M  V30 19 2 15 20
M  V30 20 1 15 21
M  V30 21 1 16 22
M  V30 22 2 17 23
M  V30 23 1 18 24
M  V30 24 1 18 25
M  V30 25 1 18 26
M  V30 26 2 22 27
M  V30 27 1 7 9
M  V30 28 1 12 14
M  V30 29 1 23 27
M  V30 END BOND
M  V30 BEGIN COLLECTION
M  V30 MDLV30/STERAC1 ATOMS=(1 6)
M  V30 END COLLECTION
M  V30 END CTAB
M  END
>  <Drug Name>
Bendroflumethiazide

>  <Carbon Count>
15

>  <SMILES String>
O=S1(C2=CC(S(N)(=O)=O)=C(C(F)(F)F)C=C2NC(CC3=CC=CC=C3)N1)=O

$$$$
Misoprostol
Actelion Java MolfileCreator 2.0

  0  0  0  0  0  0              0 V3000
M  V30 BEGIN CTAB
M  V30 COUNTS 27 27 0 0 0
M  V30 BEGIN ATOM
M  V30 1 O 10.7334 2.4954 0.0 0
M  V30 2 C 11.8481 1.4917 0.0 0
M  V30 3 C 11.6913 0.0 0.0 0 CFG=1
M  V30 4 C 13.3153 1.8036 0.0 0
M  V30 5 C 13.0616 -0.6101 0.0 0 CFG=2
M  V30 6 C 10.3923 -0.75 0.0 0
M  V30 7 C 14.0653 0.5046 0.0 0 CFG=2
M  V30 8 C 13.3735 -2.0773 0.0 0
M  V30 9 C 9.0932 0.0 0.0 0
M  V30 10 O 15.5571 0.3478 0.0 0
M  V30 11 C 14.8001 -2.5408 0.0 0
M  V30 12 C 7.7942 -0.75 0.0 0
M  V30 13 C 15.112 -4.008 0.0 0
M  V30 14 C 6.4952 0.0 0.0 0
M  V30 15 C 16.5385 -4.4716 0.0 0
M  V30 16 C 5.1961 -0.75 0.0 0
M  V30 17 O 18.0057 -4.1597 0.0 0
M  V30 18 C 16.8504 -5.9388 0.0 0
M  V30 19 C 17.002 -3.045 0.0 0
M  V30 20 C 3.8971 0.0 0.0 0
M  V30 21 C 18.277 -6.4023 0.0 0
M  V30 22 C 2.598 -0.75 0.0 0
M  V30 23 C 18.5889 -7.8695 0.0 0
M  V30 24 O 2.598 -2.25 0.0 0
M  V30 25 O 1.299 0.0 0.0 0
M  V30 26 C 20.0155 -8.3331 0.0 0
M  V30 27 C 0.0 -0.75 0.0 0
M  V30 END ATOM
M  V30 BEGIN BOND
M  V30 1 2 1 2
M  V30 2 1 2 3
M  V30 3 1 2 4
M  V30 4 1 3 5
M  V30 5 1 3 6 CFG=1
M  V30 6 1 4 7
M  V30 7 1 5 8 CFG=3
M  V30 8 1 6 9
M  V30 9 1 7 10 CFG=1
M  V30 10 2 8 11
M  V30 11 1 9 12
M  V30 12 1 11 13
M  V30 13 1 12 14
M  V30 14 1 13 15
M  V30 15 1 14 16
M  V30 16 1 15 17
M  V30 17 1 15 18
M  V30 18 1 15 19
M  V30 19 1 16 20
M  V30 20 1 18 21
M  V30 21 1 20 22
M  V30 22 1 21 23
M  V30 23 2 22 24
M  V30 24 1 22 25
M  V30 25 1 23 26
M  V30 26 1 25 27
M  V30 27 1 5 7
M  V30 END BOND
M  V30 BEGIN COLLECTION
M  V30 MDLV30/STEABS ATOMS=(3 3 5 7)
M  V30 END COLLECTION
M  V30 END CTAB
M  END
>  <Drug Name>
Misoprostol

>  <Carbon Count>
22

>  <SMILES String>
CCCCC(C/C=C/[C@H]1[C@H](O)CC([C@@H]1CCCCCCC(OC)=O)=O)(O)C

$$$$
Doxylamine Succinate
Actelion Java MolfileCreator 2.0

  0  0  0  0  0  0              0 V3000
M  V30 BEGIN CTAB
M  V30 COUNTS 28 28 0 0 0
M  V30 BEGIN ATOM
M  V30 1 O 7.6648 2.3137 0.0 0
M  V30 2 C 8.3076 1.5477 0.0 0
M  V30 3 O 9.2924 1.7213 0.0 0
M  V30 4 C 7.9655 0.608 0.0 0
M  V30 5 C 8.6083 -0.158 0.0 0
M  V30 6 C 8.2663 -1.0977 0.0 0
M  V30 7 O 7.2815 -1.2713 0.0 0
M  V30 8 O 8.9091 -1.8637 0.0 0
M  V30 9 O 4.8387 -0.2034 0.0 0
M  V30 10 C 4.1959 0.5625 0.0 0 CFG=2
M  V30 11 C 4.4967 -1.1431 0.0 0
M  V30 12 C 4.5379 1.5022 0.0 0
M  V30 13 C 3.2111 0.3889 0.0 0
M  V30 14 C 5.1807 0.7362 0.0 0
M  V30 15 C 5.1395 -1.9092 0.0 0
M  V30 16 N 5.5227 1.6759 0.0 0
M  V30 17 C 3.8951 2.2683 0.0 0
M  V30 18 C 2.5683 1.1549 0.0 0
M  V30 19 C 2.8691 -0.5507 0.0 0
M  V30 20 N 4.7975 -2.8488 0.0 0
M  V30 21 C 5.8648 2.6156 0.0 0
M  V30 22 C 4.2372 3.208 0.0 0
M  V30 23 C 1.5835 0.9813 0.0 0
M  V30 24 C 1.8843 -0.7244 0.0 0
M  V30 25 C 3.8126 -3.0225 0.0 0
M  V30 26 C 5.4402 -3.6149 0.0 0
M  V30 27 C 5.222 3.3816 0.0 0
M  V30 28 C 1.2415 0.0416 0.0 0
M  V30 END ATOM
M  V30 BEGIN BOND
M  V30 1 2 1 2
M  V30 2 1 2 3
M  V30 3 1 2 4
M  V30 4 1 4 5
M  V30 5 1 5 6
M  V30 6 2 6 7
M  V30 7 1 6 8
M  V30 8 1 9 10
M  V30 9 1 9 11
M  V30 10 1 10 12
M  V30 11 1 10 13
M  V30 12 1 10 14 CFG=3
M  V30 13 1 11 15
M  V30 14 2 12 16
M  V30 15 1 12 17
M  V30 16 2 13 18
M  V30 17 1 13 19
M  V30 18 1 15 20
M  V30 19 1 16 21
M  V30 20 2 17 22
M  V30 21 1 18 23
M  V30 22 2 19 24
M  V30 23 1 20 25
M  V30 24 1 20 26
M  V30 25 2 21 27
M  V30 26 2 23 28
M  V30 27 1 22 27
M  V30 28 1 24 28
M  V30 END BOND
M  V30 BEGIN COLLECTION
M  V30 MDLV30/STERAC1 ATOMS=(1 10)
M  V30 END COLLECTION
M  V30 END CTAB
M  END
>  <Drug Name>
Doxylamine Succinate

>  <Carbon Count>
21

>  <SMILES String>
O=C(O)CCC(O)=O.CC(C1=CC=CC=C1)(C2=CC=CC=N2)OCCN(C)C

$$$$
Dapagliflozin
Actelion Java MolfileCreator 2.0

  0  0  0  0  0  0              0 V3000
M  V30 BEGIN CTAB
M  V30 COUNTS 28 30 0 0 0
M  V30 BEGIN ATOM
M  V30 1 Cl 6.9282 2.5 0.0 0
M  V30 2 C 6.9282 1.5 0.0 0
M  V30 3 C 6.0621 1.0 0.0 0
M  V30 4 C 7.7942 1.0 0.0 0
M  V30 5 C 6.0621 0.0 0.0 0
M  V30 6 C 5.1961 1.5 0.0 0
M  V30 7 C 7.7942 0.0 0.0 0
M  V30 8 C 6.9282 -0.4999 0.0 0
M  V30 9 C 4.3301 1.0 0.0 0
M  V30 10 C 6.9282 -1.4999 0.0 0 CFG=1
M  V30 11 C 3.4641 1.5 0.0 0
M  V30 12 C 4.3301 0.0 0.0 0
M  V30 13 O 6.0621 -1.9999 0.0 0
M  V30 14 C 7.7942 -1.9999 0.0 0 CFG=1
M  V30 15 C 2.598 0.9999 0.0 0
M  V30 16 C 3.4641 -0.4999 0.0 0
M  V30 17 C 6.0621 -2.9999 0.0 0 CFG=2
M  V30 18 O 8.6602 -1.4999 0.0 0
M  V30 19 C 7.7942 -2.9999 0.0 0 CFG=1
M  V30 20 C 2.598 0.0 0.0 0
M  V30 21 C 6.9282 -3.4999 0.0 0 CFG=1
M  V30 22 C 5.1961 -3.4999 0.0 0
M  V30 23 O 8.6602 -3.4999 0.0 0
M  V30 24 O 1.732 -0.5 0.0 0
M  V30 25 O 6.9282 -4.4999 0.0 0
M  V30 26 O 5.1961 -4.4999 0.0 0
M  V30 27 C 0.866 0.0 0.0 0
M  V30 28 C 0.0 -0.5 0.0 0
M  V30 END ATOM
M  V30 BEGIN BOND
M  V30 1 1 1 2
M  V30 2 2 2 3
M  V30 3 1 2 4
M  V30 4 1 3 5
M  V30 5 1 3 6
M  V30 6 2 4 7
M  V30 7 2 5 8
M  V30 8 1 6 9
M  V30 9 1 10 8 CFG=3
M  V30 10 2 9 11
M  V30 11 1 9 12
M  V30 12 1 10 13
M  V30 13 1 10 14
M  V30 14 1 11 15
M  V30 15 2 12 16
M  V30 16 1 13 17
M  V30 17 1 14 18 CFG=1
M  V30 18 1 14 19
M  V30 19 2 15 20
M  V30 20 1 17 21
M  V30 21 1 17 22 CFG=3
M  V30 22 1 19 23 CFG=3
M  V30 23 1 20 24
M  V30 24 1 21 25 CFG=1
M  V30 25 1 22 26
M  V30 26 1 24 27
M  V30 27 1 27 28
M  V30 28 1 7 8
M  V30 29 1 16 20
M  V30 30 1 19 21
M  V30 END BOND
M  V30 BEGIN COLLECTION
M  V30 MDLV30/STERAC1 ATOMS=(5 10 14 17 19 21)
M  V30 END COLLECTION
M  V30 END CTAB
M  END
>  <Drug Name>
Dapagliflozin

>  <Carbon Count>
21

>  <SMILES String>
CCOC1=CC=C(CC2=C(Cl)C=CC([C@H]3[C@H](O)[C@@H](O)[C@H](O)[C@@H](CO)O3)=C2)C=C1

$$$$
Rilpivirine
Actelion Java MolfileCreator 2.0

  0  0  0  0  0  0              0 V3000
M  V30 BEGIN CTAB
M  V30 COUNTS 28 30 0 0 0
M  V30 BEGIN ATOM
M  V30 1 N 5.1961 -2.4999 0.0 0
M  V30 2 C 4.3301 -1.9999 0.0 0
M  V30 3 C 3.4641 -1.4999 0.0 0
M  V30 4 C 3.4641 -0.5 0.0 0
M  V30 5 C 2.598 -1.9999 0.0 0
M  V30 6 C 2.598 0.0 0.0 0
M  V30 7 C 1.732 -1.5 0.0 0
M  V30 8 C 1.732 -0.5 0.0 0
M  V30 9 N 0.866 0.0 0.0 0
M  V30 10 C 0.0 -0.5 0.0 0
M  V30 11 N -0.866 0.0 0.0 0
M  V30 12 N 0.0 -1.4999 0.0 0
M  V30 13 C -1.732 -0.4999 0.0 0
M  V30 14 C -0.866 -1.9999 0.0 0
M  V30 15 N -2.598 0.0 0.0 0
M  V30 16 C -1.732 -1.4999 0.0 0
M  V30 17 C -3.4641 -0.4999 0.0 0
M  V30 18 C -4.3301 0.0 0.0 0
M  V30 19 C -3.4641 -1.4999 0.0 0
M  V30 20 C -5.1961 -0.4999 0.0 0
M  V30 21 C -4.3301 1.0 0.0 0
M  V30 22 C -4.3301 -1.9999 0.0 0
M  V30 23 C -2.598 -1.9999 0.0 0
M  V30 24 C -5.1961 -1.4999 0.0 0
M  V30 25 C -6.0621 -1.9999 0.0 0
M  V30 26 C -6.0621 -2.9999 0.0 0
M  V30 27 C -6.9282 -3.4999 0.0 0
M  V30 28 N -7.7942 -3.9999 0.0 0
M  V30 END ATOM
M  V30 BEGIN BOND
M  V30 1 3 1 2
M  V30 2 1 2 3
M  V30 3 2 3 4
M  V30 4 1 3 5
M  V30 5 1 4 6
M  V30 6 2 5 7
M  V30 7 2 6 8
M  V30 8 1 8 9
M  V30 9 1 9 10
M  V30 10 2 10 11
M  V30 11 1 10 12
M  V30 12 1 11 13
M  V30 13 2 12 14
M  V30 14 1 13 15
M  V30 15 2 13 16
M  V30 16 1 15 17
M  V30 17 2 17 18
M  V30 18 1 17 19
M  V30 19 1 18 20
M  V30 20 1 18 21
M  V30 21 2 19 22
M  V30 22 1 19 23
M  V30 23 2 20 24
M  V30 24 1 24 25
M  V30 25 2 25 26
M  V30 26 1 26 27
M  V30 27 3 27 28
M  V30 28 1 7 8
M  V30 29 1 14 16
M  V30 30 1 22 24
M  V30 END BOND
M  V30 END CTAB
M  END
>  <Drug Name>
Rilpivirine

>  <Carbon Count>
22

>  <SMILES String>
CC1=CC(/C=C/C#N)=CC(C)=C1NC2=CC=NC(NC3=CC=C(C#N)C=C3)=N2

$$$$
Sitagliptin
Actelion Java MolfileCreator 2.0

  0  0  0  0  0  0              0 V3000
M  V30 BEGIN CTAB
M  V30 COUNTS 28 30 0 0 0
M  V30 BEGIN ATOM
M  V30 1 F 6.9282 1.4999 0.0 0
M  V30 2 C 6.0621 0.9999 0.0 0
M  V30 3 C 5.1961 1.4999 0.0 0
M  V30 4 C 6.0621 0.0 0.0 0
M  V30 5 F 5.1961 2.4999 0.0 0
M  V30 6 C 4.3301 0.9999 0.0 0
M  V30 7 C 5.1961 -0.5 0.0 0
M  V30 8 C 4.3301 0.0 0.0 0
M  V30 9 F 5.1961 -1.5 0.0 0
M  V30 10 C 3.4641 -0.5 0.0 0
M  V30 11 C 2.598 0.0 0.0 0 CFG=1
M  V30 12 N 2.598 1.0 0.0 0
M  V30 13 C 1.732 -0.5 0.0 0
M  V30 14 C 0.866 0.0 0.0 0
M  V30 15 O 0.866 1.0 0.0 0
M  V30 16 N 0.0 -0.5 0.0 0
M  V30 17 C -0.866 0.0 0.0 0
M  V30 18 C 0.0 -1.5 0.0 0
M  V30 19 C -1.732 -0.4999 0.0 0
M  V30 20 C -0.866 -1.9999 0.0 0
M  V30 21 N -2.6831 -0.1909 0.0 0
M  V30 22 N -1.732 -1.4999 0.0 0
M  V30 23 N -3.2708 -0.9999 0.0 0
M  V30 24 C -2.6831 -1.809 0.0 0
M  V30 25 C -2.9921 -2.76 0.0 0
M  V30 26 F -2.041 -3.069 0.0 0
M  V30 27 F -3.3011 -3.7111 0.0 0
M  V30 28 F -3.9431 -2.451 0.0 0
M  V30 END ATOM
M  V30 BEGIN BOND
M  V30 1 1 1 2
M  V30 2 2 2 3
M  V30 3 1 2 4
M  V30 4 1 3 5
M  V30 5 1 3 6
M  V30 6 2 4 7
M  V30 7 2 6 8
M  V30 8 1 7 9
M  V30 9 1 8 10
M  V30 10 1 10 11
M  V30 11 1 11 12 CFG=3
M  V30 12 1 11 13
M  V30 13 1 13 14
M  V30 14 2 14 15
M  V30 15 1 14 16
M  V30 16 1 16 17
M  V30 17 1 16 18
M  V30 18 1 17 19
M  V30 19 1 18 20
M  V30 20 2 19 21
M  V30 21 1 19 22
M  V30 22 1 21 23
M  V30 23 1 22 24
M  V30 24 1 24 25
M  V30 25 1 25 26
M  V30 26 1 25 27
M  V30 27 1 25 28
M  V30 28 1 7 8
M  V30 29 1 20 22
M  V30 30 2 23 24
M  V30 END BOND
M  V30 BEGIN COLLECTION
M  V30 MDLV30/STEABS ATOMS=(1 11)
M  V30 END COLLECTION
M  V30 END CTAB
M  END
>  <Drug Name>
Sitagliptin

>  <Carbon Count>
16

>  <SMILES String>
FC1=CC(C[C@@H](N)CC(N2CCN3C(C2)=NN=C3C(F)(F)F)=O)=C(F)C=C1F

$$$$
Bortezomib
Actelion Java MolfileCreator 2.0

  0  0  0  0  0  0              0 V3000
M  V30 BEGIN CTAB
M  V30 COUNTS 28 29 0 0 0
M  V30 BEGIN ATOM
M  V30 1 O 11.6913 0.0 0.0 0
M  V30 2 C 10.3923 -0.75 0.0 0
M  V30 3 N 9.0932 0.0 0.0 0
M  V30 4 C 10.3923 -2.25 0.0 0
M  V30 5 C 7.7942 -0.75 0.0 0 CFG=2
M  V30 6 N 9.0932 -3.0 0.0 0
M  V30 7 C 11.6913 -2.9999 0.0 0
M  V30 8 C 6.4951 0.0 0.0 0
M  V30 9 C 7.7942 -2.25 0.0 0
M  V30 10 C 9.0932 -4.5 0.0 0
M  V30 11 N 11.6913 -4.5 0.0 0
M  V30 12 O 6.4951 1.5 0.0 0
M  V30 13 N 5.1961 -0.75 0.0 0
M  V30 14 C 6.4951 -2.9999 0.0 0
M  V30 15 C 10.3923 -5.25 0.0 0
M  V30 16 C 3.8971 0.0 0.0 0 CFG=1
M  V30 17 C 6.4951 -4.4999 0.0 0
M  V30 18 C 5.1961 -2.2499 0.0 0
M  V30 19 C 2.598 -0.75 0.0 0
M  V30 20 B 3.8971 1.5 0.0 0
M  V30 21 C 5.1961 -5.2499 0.0 0
M  V30 22 C 3.8971 -2.9999 0.0 0
M  V30 23 C 1.299 0.0 0.0 0
M  V30 24 O 5.1961 2.25 0.0 0
M  V30 25 O 2.598 2.25 0.0 0
M  V30 26 C 3.8971 -4.4999 0.0 0
M  V30 27 C 1.299 1.5 0.0 0
M  V30 28 C 0.0 -0.75 0.0 0
M  V30 END ATOM
M  V30 BEGIN BOND
M  V30 1 2 1 2
M  V30 2 1 2 3
M  V30 3 1 2 4
M  V30 4 1 5 3 CFG=1
M  V30 5 2 4 6
M  V30 6 1 4 7
M  V30 7 1 5 8
M  V30 8 1 5 9
M  V30 9 1 6 10
M  V30 10 2 7 11
M  V30 11 2 8 12
M  V30 12 1 8 13
M  V30 13 1 9 14
M  V30 14 2 10 15
M  V30 15 1 16 13 CFG=1
M  V30 16 2 14 17
M  V30 17 1 14 18
M  V30 18 1 16 19
M  V30 19 1 16 20
M  V30 20 1 17 21
M  V30 21 2 18 22
M  V30 22 1 19 23
M  V30 23 1 20 24
M  V30 24 1 20 25
M  V30 25 2 21 26
M  V30 26 1 23 27
M  V30 27 1 23 28
M  V30 28 1 11 15
M  V30 29 1 22 26
M  V30 END BOND
M  V30 BEGIN COLLECTION
M  V30 MDLV30/STEABS ATOMS=(2 5 16)
M  V30 END COLLECTION
M  V30 END CTAB
M  END
>  <Drug Name>
Bortezomib

>  <Carbon Count>
19

>  <SMILES String>
CC(C)C[C@@H](B(O)O)NC([C@@H](NC(C1=NC=CN=C1)=O)CC2=CC=CC=C2)=O

$$$$
Amlodipine
Actelion Java MolfileCreator 2.0

  0  0  0  0  0  0              0 V3000
M  V30 BEGIN CTAB
M  V30 COUNTS 28 29 0 0 0
M  V30 BEGIN ATOM
M  V30 1 Cl 6.9282 2.4999 0.0 0
M  V30 2 C 6.0621 2.9999 0.0 0
M  V30 3 C 5.1961 2.5 0.0 0
M  V30 4 C 6.0621 3.9999 0.0 0
M  V30 5 C 4.3301 3.0 0.0 0
M  V30 6 C 5.1961 1.4999 0.0 0 CFG=2
M  V30 7 C 5.1961 4.5 0.0 0
M  V30 8 C 4.3301 4.0 0.0 0
M  V30 9 C 4.3301 1.0 0.0 0
M  V30 10 C 6.0621 0.9999 0.0 0
M  V30 11 C 4.3301 0.0 0.0 0
M  V30 12 C 3.4641 1.5 0.0 0
M  V30 13 C 6.0621 0.0 0.0 0
M  V30 14 C 6.9282 1.4999 0.0 0
M  V30 15 N 5.1961 -0.5 0.0 0
M  V30 16 C 3.4641 -0.5 0.0 0
M  V30 17 O 2.598 1.0 0.0 0
M  V30 18 O 3.4641 2.5 0.0 0
M  V30 19 C 6.9282 -0.5 0.0 0
M  V30 20 O 6.9282 2.7499 0.0 0
M  V30 21 O 7.7942 0.9999 0.0 0
M  V30 22 O 2.598 0.0 0.0 0
M  V30 23 C 2.598 3.0 0.0 0
M  V30 24 C 8.6602 1.4999 0.0 0
M  V30 25 C 1.732 -0.5 0.0 0
M  V30 26 C 2.598 4.0 0.0 0
M  V30 27 C 0.866 0.0 0.0 0
M  V30 28 N 0.0 -0.5 0.0 0
M  V30 END ATOM
M  V30 BEGIN BOND
M  V30 1 1 1 2
M  V30 2 2 2 3
M  V30 3 1 2 4
M  V30 4 1 3 5
M  V30 5 1 6 3 CFG=1
M  V30 6 2 4 7
M  V30 7 2 5 8
M  V30 8 1 6 9
M  V30 9 1 6 10
M  V30 10 2 9 11
M  V30 11 1 9 12
M  V30 12 2 10 13
M  V30 13 1 10 14
M  V30 14 1 11 15
M  V30 15 1 11 16
M  V30 16 2 12 17
M  V30 17 1 12 18
M  V30 18 1 13 19
M  V30 19 2 14 20
M  V30 20 1 14 21
M  V30 21 1 16 22
M  V30 22 1 18 23
M  V30 23 1 21 24
M  V30 24 1 22 25
M  V30 25 1 23 26
M  V30 26 1 25 27
M  V30 27 1 27 28
M  V30 28 1 7 8
M  V30 29 1 13 15
M  V30 END BOND
M  V30 BEGIN COLLECTION
M  V30 MDLV30/STERAC1 ATOMS=(1 6)
M  V30 END COLLECTION
M  V30 END CTAB
M  END
>  <Drug Name>
Amlodipine

>  <Carbon Count>
20

>  <SMILES String>
O=C(OCC)C1=C(NC(C)=C(C1C2=C(Cl)C=CC=C2)C(OC)=O)COCCN

$$$$

Actelion Java MolfileCreator 2.0

  0  0  0  0  0  0              0 V3000
M  V30 BEGIN CTAB
M  V30 COUNTS 0 0 0 0 0
M  V30 BEGIN ATOM
M  V30 END ATOM
M  V30 BEGIN BOND
M  V30 END BOND
M  V30 END CTAB
M  END
>  <Drug Name>
Tamsulosin?

>  <Carbon Count>
20

>  <SMILES String>
O=S(C1=C(OC)C=CC(C[C@@H](C)NCCOC2=C(OCC)C=CC=C2)=C1)(N)=O

$$$$
Ethynodiol Diacetate
Actelion Java MolfileCreator 2.0

  0  0  0  0  0  0              0 V3000
M  V30 BEGIN CTAB
M  V30 COUNTS 28 31 0 0 0
M  V30 BEGIN ATOM
M  V30 1 O 1.732 1.4999 0.0 0
M  V30 2 C 0.9061 0.9567 0.0 0
M  V30 3 O 0.816 -0.1737 0.0 0
M  V30 4 C 0.0 1.5 0.0 0
M  V30 5 C 0.0 -0.5 0.0 0 CFG=2
M  V30 6 C 0.8386 -1.0446 0.0 0
M  V30 7 C -0.0523 0.4986 0.0 0 CFG=2
M  V30 8 C -0.9335 -0.8583 0.0 0
M  V30 9 C 1.6773 -1.5892 0.0 0
M  V30 10 C -1.0182 0.7574 0.0 0 CFG=1
M  V30 11 C 0.6414 1.3151 0.0 0
M  V30 12 C 0.9042 0.133 0.0 0
M  V30 13 C -1.5629 -0.0812 0.0 0
M  V30 14 C -1.277 1.7233 0.0 0 CFG=1
M  V30 15 C 0.3959 2.1716 0.0 0
M  V30 16 C -0.5699 2.4304 0.0 0 CFG=2
M  V30 17 C -2.243 1.9821 0.0 0
M  V30 18 C -0.8287 3.3964 0.0 0 CFG=2
M  V30 19 C -2.5018 2.9481 0.0 0
M  V30 20 C -1.7947 3.6552 0.0 0
M  V30 21 C -0.1216 4.1035 0.0 0
M  V30 22 C -2.0535 4.6211 0.0 0
M  V30 23 C -0.3805 5.0694 0.0 0
M  V30 24 C -1.3464 5.3282 0.0 0 CFG=2
M  V30 25 O -1.6052 6.2941 0.0 0
M  V30 26 C -0.8981 7.0012 0.0 0
M  V30 27 O 0.0677 6.7424 0.0 0
M  V30 28 C -1.1569 7.9672 0.0 0
M  V30 END ATOM
M  V30 BEGIN BOND
M  V30 1 2 1 2
M  V30 2 1 2 3
M  V30 3 1 2 4
M  V30 4 1 5 3 CFG=1
M  V30 5 1 5 6
M  V30 6 1 5 7
M  V30 7 1 5 8
M  V30 8 3 6 9
M  V30 9 1 7 10
M  V30 10 1 7 11
M  V30 11 1 7 12 CFG=1
M  V30 12 1 8 13
M  V30 13 1 10 14
M  V30 14 1 11 15
M  V30 15 1 14 16
M  V30 16 1 14 17 CFG=3
M  V30 17 1 16 18
M  V30 18 1 17 19
M  V30 19 1 18 20
M  V30 20 1 18 21 CFG=3
M  V30 21 2 20 22
M  V30 22 1 21 23
M  V30 23 1 22 24
M  V30 24 1 24 25 CFG=1
M  V30 25 1 25 26
M  V30 26 2 26 27
M  V30 27 1 26 28
M  V30 28 1 10 13 CFG=1
M  V30 29 1 16 15 CFG=1
M  V30 30 1 19 20
M  V30 31 1 23 24
M  V30 END BOND
M  V30 BEGIN COLLECTION
M  V30 MDLV30/STEABS ATOMS=(7 5 7 10 14 16 18 24)
M  V30 END COLLECTION
M  V30 END CTAB
M  END
>  <Drug Name>
Ethynodiol Diacetate

>  <Carbon Count>
24

>  <SMILES String>
CC(O[C@H]1CC[C@@]2([H])C(CC[C@]3([H])[C@]2([H])CC[C@@]4(C)[C@@]3([H])CC[C@]4(C#C)OC(C)=O)=C1)=O

$$$$
Dexamethasone
Actelion Java MolfileCreator 2.0

  0  0  0  0  0  0              0 V3000
M  V30 BEGIN CTAB
M  V30 COUNTS 28 31 0 0 0
M  V30 BEGIN ATOM
M  V30 1 F 5.0694 -3.4206 0.0 0
M  V30 2 C 3.8793 -3.574 0.0 0 CFG=2
M  V30 3 C 4.5484 -4.3172 0.0 0 CFG=2
M  V30 4 C 4.1883 -2.623 0.0 0 CFG=1
M  V30 5 C 2.9011 -3.7819 0.0 0 CFG=2
M  V30 6 C 4.2394 -5.2682 0.0 0
M  V30 7 C 5.5266 -4.1093 0.0 0
M  V30 8 C 4.8574 -3.1161 0.0 0
M  V30 9 O 5.1664 -2.4151 0.0 0
M  V30 10 C 3.5192 -1.8798 0.0 0
M  V30 11 C 2.232 -3.0388 0.0 0 CFG=1
M  V30 12 C 2.5921 -4.733 0.0 0
M  V30 13 C 4.9085 -6.0114 0.0 0
M  V30 14 C 3.2612 -5.4761 0.0 0
M  V30 15 C 6.1957 -4.8524 0.0 0
M  V30 16 C 2.541 -2.0877 0.0 0 CFG=1
M  V30 17 C 1.232 -3.0388 0.0 0
M  V30 18 C 5.8867 -5.8035 0.0 0
M  V30 19 C 1.732 -1.5 0.0 0 CFG=1
M  V30 20 C 2.9091 -1.1905 0.0 0
M  V30 21 C 0.923 -2.0877 0.0 0 CFG=2
M  V30 22 O 6.5558 -6.5466 0.0 0
M  V30 23 O 2.5429 -1.0055 0.0 0
M  V30 24 C 1.732 -0.5 0.0 0
M  V30 25 C -0.028 -1.7787 0.0 0
M  V30 26 O 2.598 0.0 0.0 0
M  V30 27 C 0.866 0.0 0.0 0
M  V30 28 O 0.0 -0.5 0.0 0
M  V30 END ATOM
M  V30 BEGIN BOND
M  V30 1 1 2 1 CFG=1
M  V30 2 1 2 3
M  V30 3 1 2 4
M  V30 4 1 2 5
M  V30 5 1 3 6
M  V30 6 1 3 7
M  V30 7 1 3 8 CFG=3
M  V30 8 1 4 9 CFG=3
M  V30 9 1 4 10
M  V30 10 1 5 11
M  V30 11 1 5 12 CFG=1
M  V30 12 2 6 13
M  V30 13 1 6 14
M  V30 14 2 7 15
M  V30 15 1 10 16
M  V30 16 1 11 17 CFG=3
M  V30 17 1 13 18
M  V30 18 1 16 19
M  V30 19 1 16 20 CFG=3
M  V30 20 1 17 21
M  V30 21 2 18 22
M  V30 22 1 19 23 CFG=1
M  V30 23 1 19 24
M  V30 24 1 21 25 CFG=1
M  V30 25 2 24 26
M  V30 26 1 24 27
M  V30 27 1 27 28
M  V30 28 1 11 16
M  V30 29 1 12 14
M  V30 30 1 15 18
M  V30 31 1 19 21
M  V30 END BOND
M  V30 BEGIN COLLECTION
M  V30 MDLV30/STEABS ATOMS=(8 2 3 4 5 11 16 19 21)
M  V30 END COLLECTION
M  V30 END CTAB
M  END
>  <Drug Name>
Dexamethasone

>  <Carbon Count>
22

>  <SMILES String>
O=C1C=C[C@]2(C)[C@@]3(F)[C@@H](O)C[C@]4(C)[C@@](O)(C(CO)=O)[C@H](C)C[C@@]4([H])[C@]3([H])CCC2=C1

$$$$
Dexamethasone
Actelion Java MolfileCreator 2.0

  0  0  0  0  0  0              0 V3000
M  V30 BEGIN CTAB
M  V30 COUNTS 28 31 0 0 0
M  V30 BEGIN ATOM
M  V30 1 F 5.0694 -3.4206 0.0 0
M  V30 2 C 3.8793 -3.574 0.0 0 CFG=2
M  V30 3 C 4.5484 -4.3172 0.0 0 CFG=2
M  V30 4 C 4.1883 -2.623 0.0 0 CFG=1
M  V30 5 C 2.9011 -3.7819 0.0 0 CFG=2
M  V30 6 C 4.2394 -5.2682 0.0 0
M  V30 7 C 5.5266 -4.1093 0.0 0
M  V30 8 C 4.8574 -3.1161 0.0 0
M  V30 9 O 5.1664 -2.4151 0.0 0
M  V30 10 C 3.5192 -1.8798 0.0 0
M  V30 11 C 2.232 -3.0388 0.0 0 CFG=1
M  V30 12 C 2.5921 -4.733 0.0 0
M  V30 13 C 4.9085 -6.0114 0.0 0
M  V30 14 C 3.2612 -5.4761 0.0 0
M  V30 15 C 6.1957 -4.8524 0.0 0
M  V30 16 C 2.541 -2.0877 0.0 0 CFG=1
M  V30 17 C 1.232 -3.0388 0.0 0
M  V30 18 C 5.8867 -5.8035 0.0 0
M  V30 19 C 1.732 -1.5 0.0 0 CFG=1
M  V30 20 C 2.9091 -1.1905 0.0 0
M  V30 21 C 0.923 -2.0877 0.0 0 CFG=2
M  V30 22 O 6.5558 -6.5466 0.0 0
M  V30 23 O 2.5429 -1.0055 0.0 0
M  V30 24 C 1.732 -0.5 0.0 0
M  V30 25 C -0.028 -1.7787 0.0 0
M  V30 26 O 2.598 0.0 0.0 0
M  V30 27 C 0.866 0.0 0.0 0
M  V30 28 O 0.0 -0.5 0.0 0
M  V30 END ATOM
M  V30 BEGIN BOND
M  V30 1 1 2 1 CFG=1
M  V30 2 1 2 3
M  V30 3 1 2 4
M  V30 4 1 2 5
M  V30 5 1 3 6
M  V30 6 1 3 7
M  V30 7 1 3 8 CFG=3
M  V30 8 1 4 9 CFG=3
M  V30 9 1 4 10
M  V30 10 1 5 11
M  V30 11 1 5 12 CFG=1
M  V30 12 2 6 13
M  V30 13 1 6 14
M  V30 14 2 7 15
M  V30 15 1 10 16
M  V30 16 1 11 17 CFG=3
M  V30 17 1 13 18
M  V30 18 1 16 19
M  V30 19 1 16 20 CFG=3
M  V30 20 1 17 21
M  V30 21 2 18 22
M  V30 22 1 19 23 CFG=1
M  V30 23 1 19 24
M  V30 24 1 21 25 CFG=1
M  V30 25 2 24 26
M  V30 26 1 24 27
M  V30 27 1 27 28
M  V30 28 1 11 16
M  V30 29 1 12 14
M  V30 30 1 15 18
M  V30 31 1 19 21
M  V30 END BOND
M  V30 BEGIN COLLECTION
M  V30 MDLV30/STEABS ATOMS=(8 2 3 4 5 11 16 19 21)
M  V30 END COLLECTION
M  V30 END CTAB
M  END
>  <Drug Name>
Dexamethasone

>  <Carbon Count>
22

>  <SMILES String>
O=C1C=C[C@@]2(C)C(CC[C@]3([H])[C@]2(F)[C@@H](O)C[C@@]4(C)[C@@]3([H])C[C@@H](C)[C@]4(O)C(CO)=O)=C1

$$$$
Donepezil
Actelion Java MolfileCreator 2.0

  0  0  0  0  0  0              0 V3000
M  V30 BEGIN CTAB
M  V30 COUNTS 28 31 0 0 0
M  V30 BEGIN ATOM
M  V30 1 O 1.0934 -2.1636 0.0 0
M  V30 2 C 1.8365 -1.4945 0.0 0
M  V30 3 C 2.8147 -1.7024 0.0 0
M  V30 4 C 1.732 -0.5 0.0 0 CFG=2
M  V30 5 C 3.3147 -0.8364 0.0 0
M  V30 6 C 3.3147 -2.5684 0.0 0
M  V30 7 C 2.6455 -0.0932 0.0 0
M  V30 8 C 0.866 0.0 0.0 0
M  V30 9 C 4.3147 -0.8364 0.0 0
M  V30 10 C 4.3147 -2.5684 0.0 0
M  V30 11 C 0.0 -0.5 0.0 0
M  V30 12 C 4.8147 -1.7024 0.0 0
M  V30 13 O 4.8147 -3.4344 0.0 0
M  V30 14 C -0.866 0.0 0.0 0
M  V30 15 C 0.0 -1.4999 0.0 0
M  V30 16 O 5.8147 -1.7024 0.0 0
M  V30 17 C 5.8147 -3.4344 0.0 0
M  V30 18 C -1.732 -0.4999 0.0 0
M  V30 19 C -0.866 -1.9999 0.0 0
M  V30 20 C 6.3147 -0.8364 0.0 0
M  V30 21 N -1.732 -1.4999 0.0 0
M  V30 22 C -2.598 -1.9999 0.0 0
M  V30 23 C -2.598 -2.9999 0.0 0
M  V30 24 C -3.4641 -3.4999 0.0 0
M  V30 25 C -1.732 -3.4999 0.0 0
M  V30 26 C -3.4641 -4.4999 0.0 0
M  V30 27 C -1.732 -4.4999 0.0 0
M  V30 28 C -2.598 -4.9999 0.0 0
M  V30 END ATOM
M  V30 BEGIN BOND
M  V30 1 2 1 2
M  V30 2 1 2 3
M  V30 3 1 2 4
M  V30 4 2 3 5
M  V30 5 1 3 6
M  V30 6 1 4 7
M  V30 7 1 4 8 CFG=1
M  V30 8 1 5 9
M  V30 9 2 6 10
M  V30 10 1 8 11
M  V30 11 2 9 12
M  V30 12 1 10 13
M  V30 13 1 11 14
M  V30 14 1 11 15
M  V30 15 1 12 16
M  V30 16 1 13 17
M  V30 17 1 14 18
M  V30 18 1 15 19
M  V30 19 1 16 20
M  V30 20 1 18 21
M  V30 21 1 21 22
M  V30 22 1 22 23
M  V30 23 2 23 24
M  V30 24 1 23 25
M  V30 25 1 24 26
M  V30 26 2 25 27
M  V30 27 2 26 28
M  V30 28 1 5 7
M  V30 29 1 10 12
M  V30 30 1 19 21
M  V30 31 1 27 28
M  V30 END BOND
M  V30 BEGIN COLLECTION
M  V30 MDLV30/STERAC1 ATOMS=(1 4)
M  V30 END COLLECTION
M  V30 END CTAB
M  END
>  <Drug Name>
Donepezil

>  <Carbon Count>
24

>  <SMILES String>
O=C1C(CC2=CC(OC)=C(OC)C=C21)CC3CCN(CC3)CC4=CC=CC=C4

$$$$
Amsacrine
Actelion Java MolfileCreator 2.0

  0  0  0  0  0  0              0 V3000
M  V30 BEGIN CTAB
M  V30 COUNTS 28 31 0 0 0
M  V30 BEGIN ATOM
M  V30 1 S 1.732 -0.5 0.0 0
M  V30 2 O 1.232 -1.366 0.0 0
M  V30 3 O 2.232 0.366 0.0 0
M  V30 4 N 0.866 0.0 0.0 0
M  V30 5 C 2.598 -0.9999 0.0 0
M  V30 6 C 0.0 -0.5 0.0 0
M  V30 7 C -0.866 0.0 0.0 0
M  V30 8 C 0.0 -1.4999 0.0 0
M  V30 9 C -1.732 -0.4999 0.0 0
M  V30 10 C -0.866 -1.9999 0.0 0
M  V30 11 O -2.598 0.0 0.0 0
M  V30 12 C -1.732 -1.4999 0.0 0
M  V30 13 C -3.4641 -0.4999 0.0 0
M  V30 14 N -2.598 -1.9999 0.0 0
M  V30 15 C -2.598 -2.9999 0.0 0
M  V30 16 C -3.4641 -3.4999 0.0 0
M  V30 17 C -1.732 -3.4999 0.0 0
M  V30 18 C -3.4641 -4.4999 0.0 0
M  V30 19 C -4.3301 -2.9999 0.0 0
M  V30 20 C -1.732 -4.4999 0.0 0
M  V30 21 C -0.866 -2.9999 0.0 0
M  V30 22 N -2.598 -4.9999 0.0 0
M  V30 23 C -4.3301 -4.9999 0.0 0
M  V30 24 C -5.1961 -3.4999 0.0 0
M  V30 25 C -0.866 -4.9999 0.0 0
M  V30 26 C 0.0 -3.4999 0.0 0
M  V30 27 C -5.1961 -4.4999 0.0 0
M  V30 28 C 0.0 -4.4999 0.0 0
M  V30 END ATOM
M  V30 BEGIN BOND
M  V30 1 2 1 2
M  V30 2 2 1 3
M  V30 3 1 1 4
M  V30 4 1 1 5
M  V30 5 1 4 6
M  V30 6 2 6 7
M  V30 7 1 6 8
M  V30 8 1 7 9
M  V30 9 2 8 10
M  V30 10 1 9 11
M  V30 11 2 9 12
M  V30 12 1 11 13
M  V30 13 1 12 14
M  V30 14 1 14 15
M  V30 15 1 15 16
M  V30 16 2 15 17
M  V30 17 1 16 18
M  V30 18 2 16 19
M  V30 19 1 17 20
M  V30 20 1 17 21
M  V30 21 1 18 22
M  V30 22 2 18 23
M  V30 23 1 19 24
M  V30 24 1 20 25
M  V30 25 2 21 26
M  V30 26 1 23 27
M  V30 27 2 25 28
M  V30 28 1 10 12
M  V30 29 2 20 22
M  V30 30 2 24 27
M  V30 31 1 26 28
M  V30 END BOND
M  V30 END CTAB
M  END
>  <Drug Name>
Amsacrine

>  <Carbon Count>
21

>  <SMILES String>
COC1=CC(NS(C)(=O)=O)=CC=C1NC2=C3C(C=CC=C3)=NC4=CC=CC=C42

$$$$
Prednisolone Acetate
Actelion Java MolfileCreator 2.0

  0  0  0  0  0  0              0 V3000
M  V30 BEGIN CTAB
M  V30 COUNTS 29 32 0 0 0
M  V30 BEGIN ATOM
M  V30 1 O 12.476 -9.8549 0.0 0
M  V30 2 C 11.4688 -8.7362 0.0 0
M  V30 3 C 9.9963 -9.0492 0.0 0
M  V30 4 C 11.9339 -7.3045 0.0 0
M  V30 5 C 8.989 -7.9305 0.0 0
M  V30 6 C 10.9267 -6.1858 0.0 0
M  V30 7 C 9.4542 -6.4988 0.0 0 CFG=2
M  V30 8 C 7.5166 -8.2434 0.0 0
M  V30 9 C 8.447 -5.3801 0.0 0 CFG=1
M  V30 10 C 9.9194 -5.0672 0.0 0
M  V30 11 C 6.5093 -7.1248 0.0 0
M  V30 12 C 8.9121 -3.9485 0.0 0 CFG=1
M  V30 13 C 6.9745 -5.6931 0.0 0 CFG=1
M  V30 14 O 10.3846 -3.6355 0.0 0
M  V30 15 C 7.9049 -2.8298 0.0 0
M  V30 16 C 5.9672 -4.5744 0.0 0 CFG=1
M  V30 17 C 6.4324 -3.1428 0.0 0 CFG=1
M  V30 18 C 4.4619 -4.5744 0.0 0
M  V30 19 C 5.2146 -2.258 0.0 0 CFG=1
M  V30 20 C 6.866 -1.7312 0.0 0
M  V30 21 C 3.9967 -3.1428 0.0 0
M  V30 22 O 6.3147 -1.4527 0.0 0
M  V30 23 C 5.2146 -0.7526 0.0 0
M  V30 24 O 6.5182 0.0 0.0 0
M  V30 25 C 3.9109 0.0 0.0 0
M  V30 26 O 2.6073 -0.7526 0.0 0
M  V30 27 C 1.3036 0.0 0.0 0
M  V30 28 O 1.3036 1.5053 0.0 0
M  V30 29 C 0.0 -0.7526 0.0 0
M  V30 END ATOM
M  V30 BEGIN BOND
M  V30 1 2 1 2
M  V30 2 1 2 3
M  V30 3 1 2 4
M  V30 4 2 3 5
M  V30 5 2 4 6
M  V30 6 1 5 7
M  V30 7 1 5 8
M  V30 8 1 7 9
M  V30 9 1 7 10 CFG=3
M  V30 10 1 8 11
M  V30 11 1 9 12 CFG=3
M  V30 12 1 9 13
M  V30 13 1 12 14 CFG=3
M  V30 14 1 12 15
M  V30 15 1 13 16
M  V30 16 1 15 17
M  V30 17 1 16 18 CFG=3
M  V30 18 1 17 19
M  V30 19 1 17 20 CFG=3
M  V30 20 1 18 21
M  V30 21 1 19 22 CFG=1
M  V30 22 1 19 23
M  V30 23 2 23 24
M  V30 24 1 23 25
M  V30 25 1 25 26
M  V30 26 1 26 27
M  V30 27 2 27 28
M  V30 28 1 27 29
M  V30 29 1 6 7
M  V30 30 1 13 11 CFG=1
M  V30 31 1 16 17
M  V30 32 1 19 21
M  V30 END BOND
M  V30 BEGIN COLLECTION
M  V30 MDLV30/STERAC1 ATOMS=(7 7 9 12 13 16 17 19)
M  V30 END COLLECTION
M  V30 END CTAB
M  END
>  <Drug Name>
Prednisolone Acetate

>  <Carbon Count>
23

>  <SMILES String>
CC(=O)OCC(=O)[C@]1(CC[C@@H]2[C@@]1(C[C@@H]([C@H]3[C@H]2CCC4=CC(=O)C=C[C@]34C)O)C)O

$$$$
Hydrocortisone Acetate
Actelion Java MolfileCreator 2.0

  0  0  0  0  0  0              0 V3000
M  V30 BEGIN CTAB
M  V30 COUNTS 29 32 0 0 0
M  V30 BEGIN ATOM
M  V30 1 O 12.476 -9.8549 0.0 0
M  V30 2 C 11.4688 -8.7362 0.0 0
M  V30 3 C 9.9963 -9.0492 0.0 0
M  V30 4 C 11.9339 -7.3045 0.0 0
M  V30 5 C 8.989 -7.9305 0.0 0
M  V30 6 C 10.9267 -6.1858 0.0 0
M  V30 7 C 9.4542 -6.4988 0.0 0 CFG=1
M  V30 8 C 7.5166 -8.2434 0.0 0
M  V30 9 C 8.447 -5.3801 0.0 0 CFG=2
M  V30 10 C 9.9194 -5.0672 0.0 0
M  V30 11 C 6.5093 -7.1248 0.0 0
M  V30 12 C 8.9121 -3.9485 0.0 0 CFG=2
M  V30 13 C 6.9745 -5.6931 0.0 0 CFG=2
M  V30 14 O 10.3846 -3.6355 0.0 0
M  V30 15 C 7.9049 -2.8298 0.0 0
M  V30 16 C 5.9672 -4.5744 0.0 0 CFG=2
M  V30 17 C 6.4324 -3.1428 0.0 0 CFG=2
M  V30 18 C 4.4619 -4.5744 0.0 0
M  V30 19 C 5.2146 -2.258 0.0 0 CFG=2
M  V30 20 C 6.866 -1.7312 0.0 0
M  V30 21 C 3.9967 -3.1428 0.0 0
M  V30 22 O 6.3147 -1.4527 0.0 0
M  V30 23 C 5.2146 -0.7526 0.0 0
M  V30 24 O 6.5182 0.0 0.0 0
M  V30 25 C 3.9109 0.0 0.0 0
M  V30 26 O 2.6073 -0.7526 0.0 0
M  V30 27 C 1.3036 0.0 0.0 0
M  V30 28 O 1.3036 1.5053 0.0 0
M  V30 29 C 0.0 -0.7526 0.0 0
M  V30 END ATOM
M  V30 BEGIN BOND
M  V30 1 2 1 2
M  V30 2 1 2 3
M  V30 3 1 2 4
M  V30 4 2 3 5
M  V30 5 1 4 6
M  V30 6 1 5 7
M  V30 7 1 5 8
M  V30 8 1 7 9
M  V30 9 1 7 10 CFG=1
M  V30 10 1 8 11
M  V30 11 1 9 12 CFG=1
M  V30 12 1 9 13
M  V30 13 1 12 14 CFG=1
M  V30 14 1 12 15
M  V30 15 1 13 16
M  V30 16 1 15 17
M  V30 17 1 16 18 CFG=1
M  V30 18 1 17 19
M  V30 19 1 17 20 CFG=1
M  V30 20 1 18 21
M  V30 21 1 19 22 CFG=3
M  V30 22 1 19 23
M  V30 23 2 23 24
M  V30 24 1 23 25
M  V30 25 1 25 26
M  V30 26 1 26 27
M  V30 27 2 27 28
M  V30 28 1 27 29
M  V30 29 1 6 7
M  V30 30 1 13 11 CFG=3
M  V30 31 1 16 17
M  V30 32 1 19 21
M  V30 END BOND
M  V30 BEGIN COLLECTION
M  V30 MDLV30/STERAC1 ATOMS=(7 7 9 12 13 16 17 19)
M  V30 END COLLECTION
M  V30 END CTAB
M  END
>  <Drug Name>
Hydrocortisone Acetate

>  <Carbon Count>
23

>  <SMILES String>
CC(=O)OCC(=O)[C@]1(CC[C@@H]2[C@@]1(C[C@@H]([C@H]3[C@H]2CCC4=CC(=O)CC[C@]34C)O)C)O

$$$$
Testosterone Enanthate
Actelion Java MolfileCreator 2.0

  0  0  0  0  0  0              0 V3000
M  V30 BEGIN CTAB
M  V30 COUNTS 29 32 0 0 0
M  V30 BEGIN ATOM
M  V30 1 O 13.7106 1.1542 0.0 0
M  V30 2 C 12.7324 0.9462 0.0 0
M  V30 3 C 12.4234 -0.0047 0.0 0
M  V30 4 C 12.0633 1.6894 0.0 0
M  V30 5 C 11.4453 -0.2126 0.0 0
M  V30 6 C 11.0852 1.4815 0.0 0
M  V30 7 C 10.7761 0.5304 0.0 0 CFG=1
M  V30 8 C 11.1363 -1.1637 0.0 0
M  V30 9 C 9.798 0.3225 0.0 0 CFG=1
M  V30 10 C 10.107 1.2736 0.0 0
M  V30 11 C 10.1581 -1.3716 0.0 0
M  V30 12 C 9.489 -0.6284 0.0 0 CFG=2
M  V30 13 C 9.1289 1.0657 0.0 0
M  V30 14 C 8.5108 -0.8364 0.0 0 CFG=2
M  V30 15 C 8.1507 0.8577 0.0 0
M  V30 16 C 7.8417 -0.0932 0.0 0 CFG=1
M  V30 17 C 8.0108 -1.7024 0.0 0
M  V30 18 C 6.9282 -0.5 0.0 0 CFG=1
M  V30 19 C 7.0986 0.5758 0.0 0
M  V30 20 C 7.0327 -1.4945 0.0 0
M  V30 21 O 6.0621 0.0 0.0 0
M  V30 22 C 5.1961 -0.5 0.0 0
M  V30 23 O 5.1961 -1.4999 0.0 0
M  V30 24 C 4.3301 0.0 0.0 0
M  V30 25 C 3.4641 -0.5 0.0 0
M  V30 26 C 2.598 0.0 0.0 0
M  V30 27 C 1.732 -0.5 0.0 0
M  V30 28 C 0.866 0.0 0.0 0
M  V30 29 C 0.0 -0.5 0.0 0
M  V30 END ATOM
M  V30 BEGIN BOND
M  V30 1 2 1 2
M  V30 2 1 2 3
M  V30 3 1 2 4
M  V30 4 2 3 5
M  V30 5 1 4 6
M  V30 6 1 5 7
M  V30 7 1 5 8
M  V30 8 1 7 9
M  V30 9 1 7 10 CFG=1
M  V30 10 1 8 11
M  V30 11 1 9 12
M  V30 12 1 9 13 CFG=1
M  V30 13 1 12 14
M  V30 14 1 13 15
M  V30 15 1 14 16
M  V30 16 1 14 17 CFG=1
M  V30 17 1 16 18
M  V30 18 1 16 19 CFG=1
M  V30 19 1 17 20
M  V30 20 1 18 21 CFG=1
M  V30 21 1 21 22
M  V30 22 2 22 23
M  V30 23 1 22 24
M  V30 24 1 24 25
M  V30 25 1 25 26
M  V30 26 1 26 27
M  V30 27 1 27 28
M  V30 28 1 28 29
M  V30 29 1 6 7
M  V30 30 1 12 11 CFG=3
M  V30 31 1 15 16
M  V30 32 1 18 20
M  V30 END BOND
M  V30 BEGIN COLLECTION
M  V30 MDLV30/STERAC1 ATOMS=(6 7 9 12 14 16 18)
M  V30 END COLLECTION
M  V30 END CTAB
M  END
>  <Drug Name>
Testosterone Enanthate

>  <Carbon Count>
26

>  <SMILES String>
O=C1CC[C@]2(C)[C@@]3([H])CC[C@]4(C)[C@@H](OC(CCCCCC)=O)CC[C@@]4([H])[C@]3([H])CCC2=C1

$$$$
Cefazolin
Actelion Java MolfileCreator 2.0

  0  0  0  0  0  0              0 V3000
M  V30 BEGIN CTAB
M  V30 COUNTS 29 32 0 0 0
M  V30 BEGIN ATOM
M  V30 1 S 3.4641 -2.4318 0.0 0
M  V30 2 C 3.7229 -1.4659 0.0 0 CFG=1
M  V30 3 C 4.1712 -3.1389 0.0 0
M  V30 4 N 4.6888 -1.2071 0.0 0
M  V30 5 C 3.4641 -0.5 0.0 0 CFG=1
M  V30 6 C 5.1371 -2.8801 0.0 0
M  V30 7 C 5.3959 -1.9142 0.0 0
M  V30 8 C 4.43 -0.2411 0.0 0
M  V30 9 N 2.598 0.0 0.0 0
M  V30 10 C 5.8442 -3.5872 0.0 0
M  V30 11 C 6.3618 -1.6553 0.0 0
M  V30 12 O 4.93 0.6248 0.0 0
M  V30 13 C 1.732 -0.5 0.0 0
M  V30 14 S 5.5854 -4.5531 0.0 0
M  V30 15 O 7.0689 -2.3625 0.0 0
M  V30 16 O 6.6206 -0.6894 0.0 0
M  V30 17 O 1.732 -1.5 0.0 0
M  V30 18 C 0.866 0.0 0.0 0
M  V30 19 C 6.2925 -5.2602 0.0 0
M  V30 20 N 0.0 -0.5 0.0 0
M  V30 21 S 6.136 -6.2479 0.0 0
M  V30 22 N 7.2802 -5.1038 0.0 0
M  V30 23 N -0.9135 -0.0932 0.0 0
M  V30 24 C -0.1045 -1.4945 0.0 0
M  V30 25 C 7.0271 -6.7019 0.0 0
M  V30 26 N 7.7342 -5.9948 0.0 0
M  V30 27 N -1.5826 -0.8364 0.0 0
M  V30 28 N -1.0826 -1.7024 0.0 0
M  V30 29 C 7.1835 -7.6896 0.0 0
M  V30 END ATOM
M  V30 BEGIN BOND
M  V30 1 1 2 1 CFG=3
M  V30 2 1 1 3
M  V30 3 1 2 4
M  V30 4 1 2 5
M  V30 5 1 3 6
M  V30 6 1 4 7
M  V30 7 1 4 8
M  V30 8 1 5 9 CFG=3
M  V30 9 1 6 10
M  V30 10 1 7 11
M  V30 11 2 8 12
M  V30 12 1 9 13
M  V30 13 1 10 14
M  V30 14 2 11 15
M  V30 15 1 11 16
M  V30 16 2 13 17
M  V30 17 1 13 18
M  V30 18 1 14 19
M  V30 19 1 18 20
M  V30 20 1 19 21
M  V30 21 2 19 22
M  V30 22 1 20 23
M  V30 23 1 20 24
M  V30 24 1 21 25
M  V30 25 1 22 26
M  V30 26 2 23 27
M  V30 27 2 24 28
M  V30 28 1 25 29
M  V30 29 1 5 8
M  V30 30 2 6 7
M  V30 31 2 25 26
M  V30 32 1 27 28
M  V30 END BOND
M  V30 BEGIN COLLECTION
M  V30 MDLV30/STEABS ATOMS=(2 2 5)
M  V30 END COLLECTION
M  V30 END CTAB
M  END
>  <Drug Name>
Cefazolin

>  <Carbon Count>
14

>  <SMILES String>
O=C1[C@@H](NC(CN2N=NN=C2)=O)[C@]3([H])N1C(C(O)=O)=C(CSC4=NN=C(C)S4)CS3

$$$$
Indacaterol
Actelion Java MolfileCreator 2.0

  0  0  0  0  0  0              0 V3000
M  V30 BEGIN CTAB
M  V30 COUNTS 29 32 0 0 0
M  V30 BEGIN ATOM
M  V30 1 O 3.4641 -4.5 0.0 0
M  V30 2 C 3.4641 -3.4999 0.0 0
M  V30 3 N 4.3301 -2.9999 0.0 0
M  V30 4 C 2.598 -3.0 0.0 0
M  V30 5 C 4.3301 -1.9999 0.0 0
M  V30 6 C 2.598 -1.9999 0.0 0
M  V30 7 C 5.1961 -1.4999 0.0 0
M  V30 8 C 3.4641 -1.5 0.0 0
M  V30 9 O 6.0621 -1.9999 0.0 0
M  V30 10 C 5.1961 -0.4999 0.0 0
M  V30 11 C 3.4641 -0.5 0.0 0
M  V30 12 C 4.3301 0.0 0.0 0
M  V30 13 C 2.598 0.0 0.0 0 CFG=1
M  V30 14 O 2.598 1.0 0.0 0
M  V30 15 C 1.732 -0.5 0.0 0
M  V30 16 N 0.866 0.0 0.0 0
M  V30 17 C 0.0 -0.5 0.0 0
M  V30 18 C -0.9135 -0.0932 0.0 0
M  V30 19 C -0.1045 -1.4945 0.0 0
M  V30 20 C -1.5826 -0.8364 0.0 0
M  V30 21 C -1.0826 -1.7024 0.0 0
M  V30 22 C -2.5826 -0.8364 0.0 0
M  V30 23 C -1.5826 -2.5684 0.0 0
M  V30 24 C -3.0826 -1.7024 0.0 0
M  V30 25 C -2.5826 -2.5684 0.0 0
M  V30 26 C -4.0826 -1.7024 0.0 0
M  V30 27 C -3.0826 -3.4344 0.0 0
M  V30 28 C -4.5826 -2.5684 0.0 0
M  V30 29 C -2.5826 -4.3005 0.0 0
M  V30 END ATOM
M  V30 BEGIN BOND
M  V30 1 2 1 2
M  V30 2 1 2 3
M  V30 3 1 2 4
M  V30 4 1 3 5
M  V30 5 2 4 6
M  V30 6 2 5 7
M  V30 7 1 5 8
M  V30 8 1 7 9
M  V30 9 1 7 10
M  V30 10 2 8 11
M  V30 11 2 10 12
M  V30 12 1 11 13
M  V30 13 1 13 14 CFG=3
M  V30 14 1 13 15
M  V30 15 1 15 16
M  V30 16 1 16 17
M  V30 17 1 17 18
M  V30 18 1 17 19
M  V30 19 1 18 20
M  V30 20 1 19 21
M  V30 21 1 20 22
M  V30 22 1 21 23
M  V30 23 2 22 24
M  V30 24 2 23 25
M  V30 25 1 24 26
M  V30 26 1 25 27
M  V30 27 1 26 28
M  V30 28 1 27 29
M  V30 29 1 6 8
M  V30 30 1 11 12
M  V30 31 2 20 21
M  V30 32 1 24 25
M  V30 END BOND
M  V30 BEGIN COLLECTION
M  V30 MDLV30/STEABS ATOMS=(1 13)
M  V30 END COLLECTION
M  V30 END CTAB
M  END
>  <Drug Name>
Indacaterol

>  <Carbon Count>
24

>  <SMILES String>
CCC1=C(C=C2CC(NC[C@@H](C3=C4C=CC(NC4=C(C=C3)O)=O)O)CC2=C1)CC

$$$$
Nebivolol
Actelion Java MolfileCreator 2.0

  0  0  0  0  0  0              0 V3000
M  V30 BEGIN CTAB
M  V30 COUNTS 29 32 0 0 0
M  V30 BEGIN ATOM
M  V30 1 F 8.6602 -3.5 0.0 0
M  V30 2 C 7.7942 -2.9999 0.0 0
M  V30 3 C 7.7942 -1.9999 0.0 0
M  V30 4 C 6.9282 -3.4999 0.0 0
M  V30 5 C 6.9282 -1.4999 0.0 0
M  V30 6 C 6.0621 -2.9999 0.0 0
M  V30 7 C 6.0621 -1.9999 0.0 0
M  V30 8 C 6.9282 -0.5 0.0 0
M  V30 9 O 5.1961 -1.4999 0.0 0
M  V30 10 C 6.0621 0.0 0.0 0
M  V30 11 C 5.1961 -0.5 0.0 0
M  V30 12 C 4.3301 0.0 0.0 0
M  V30 13 O 4.3301 1.0 0.0 0
M  V30 14 C 3.4641 -0.5 0.0 0
M  V30 15 N 2.598 0.0 0.0 0
M  V30 16 C 1.732 -0.5 0.0 0
M  V30 17 C 0.866 0.0 0.0 0
M  V30 18 O 0.866 1.0 0.0 0
M  V30 19 C 0.0 -0.5 0.0 0
M  V30 20 O -0.866 0.0 0.0 0
M  V30 21 C 0.0 -1.4999 0.0 0
M  V30 22 C -1.732 -0.4999 0.0 0
M  V30 23 C -0.866 -1.9999 0.0 0
M  V30 24 C -1.732 -1.4999 0.0 0
M  V30 25 C -2.598 0.0 0.0 0
M  V30 26 C -2.598 -1.9999 0.0 0
M  V30 27 C -3.4641 -0.4999 0.0 0
M  V30 28 C -3.4641 -1.4999 0.0 0
M  V30 29 F -4.3301 -1.9999 0.0 0
M  V30 END ATOM
M  V30 BEGIN BOND
M  V30 1 1 1 2
M  V30 2 2 2 3
M  V30 3 1 2 4
M  V30 4 1 3 5
M  V30 5 2 4 6
M  V30 6 2 5 7
M  V30 7 1 5 8
M  V30 8 1 7 9
M  V30 9 1 8 10
M  V30 10 1 9 11
M  V30 11 1 11 12
M  V30 12 1 12 13
M  V30 13 1 12 14
M  V30 14 1 14 15
M  V30 15 1 15 16
M  V30 16 1 16 17
M  V30 17 1 17 18
M  V30 18 1 17 19
M  V30 19 1 19 20
M  V30 20 1 19 21
M  V30 21 1 20 22
M  V30 22 1 21 23
M  V30 23 2 22 24
M  V30 24 1 22 25
M  V30 25 1 24 26
M  V30 26 2 25 27
M  V30 27 2 26 28
M  V30 28 1 28 29
M  V30 29 1 6 7
M  V30 30 1 10 11
M  V30 31 1 23 24
M  V30 32 1 27 28
M  V30 END BOND
M  V30 END CTAB
M  END
>  <Drug Name>
Nebivolol

>  <Carbon Count>
22

>  <SMILES String>
FC1=CC(CCC(C(O)CNCC(O)C2CCC3=C(O2)C=CC(F)=C3)O4)=C4C=C1

$$$$
Spironolactone
Actelion Java MolfileCreator 2.0

  0  0  0  0  0  0              0 V3000
M  V30 BEGIN CTAB
M  V30 COUNTS 29 33 0 0 0
M  V30 BEGIN ATOM
M  V30 1 S 2.6064 -0.7524 0.0 0
M  V30 2 C 2.6064 -2.2572 0.0 0
M  V30 3 C 3.9096 0.0 0.0 0 CFG=1
M  V30 4 O 3.9096 -3.0096 0.0 0
M  V30 5 C 1.3032 -3.0096 0.0 0
M  V30 6 C 3.9096 1.5048 0.0 0 CFG=2
M  V30 7 C 5.2129 -0.7524 0.0 0
M  V30 8 C 5.2129 2.2572 0.0 0 CFG=1
M  V30 9 C 2.6064 2.2572 0.0 0 CFG=1
M  V30 10 C 6.5161 0.0 0.0 0
M  V30 11 C 6.5161 1.5048 0.0 0 CFG=2
M  V30 12 C 5.2129 3.7621 0.0 0
M  V30 13 C 2.6064 3.7621 0.0 0 CFG=2
M  V30 14 C 1.1752 1.7922 0.0 0
M  V30 15 C 7.8193 -0.7524 0.0 0
M  V30 16 C 7.8193 2.2572 0.0 0
M  V30 17 C 6.5161 3.0096 0.0 0
M  V30 18 C 3.9096 4.5145 0.0 0
M  V30 19 C 1.1752 4.2271 0.0 0 CFG=2
M  V30 20 C 2.5939 5.1895 0.0 0
M  V30 21 C 0.2907 3.0096 0.0 0
M  V30 22 C 9.1226 0.0 0.0 0
M  V30 23 C 9.1226 1.5048 0.0 0
M  V30 24 O 1.9873 5.4791 0.0 0
M  V30 25 C -0.2559 4.6921 0.0 0
M  V30 26 O 10.4258 -0.7524 0.0 0
M  V30 27 C 1.1752 6.662 0.0 0
M  V30 28 C -0.2559 6.1969 0.0 0
M  V30 29 O 1.6402 8.0932 0.0 0
M  V30 END ATOM
M  V30 BEGIN BOND
M  V30 1 1 1 2
M  V30 2 1 3 1 CFG=1
M  V30 3 2 2 4
M  V30 4 1 2 5
M  V30 5 1 6 3 CFG=1
M  V30 6 1 3 7
M  V30 7 1 6 8
M  V30 8 1 6 9
M  V30 9 1 7 10
M  V30 10 1 8 11
M  V30 11 1 8 12 CFG=3
M  V30 12 1 9 13
M  V30 13 1 9 14 CFG=3
M  V30 14 2 10 15
M  V30 15 1 11 16
M  V30 16 1 11 17 CFG=3
M  V30 17 1 12 18
M  V30 18 1 13 19
M  V30 19 1 13 20 CFG=3
M  V30 20 1 14 21
M  V30 21 1 15 22
M  V30 22 1 16 23
M  V30 23 1 19 24
M  V30 24 1 19 25 CFG=1
M  V30 25 2 22 26
M  V30 26 1 24 27
M  V30 27 1 25 28
M  V30 28 2 27 29
M  V30 29 1 10 11
M  V30 30 1 13 18
M  V30 31 1 19 21
M  V30 32 1 22 23
M  V30 33 1 27 28
M  V30 END BOND
M  V30 BEGIN COLLECTION
M  V30 MDLV30/STEABS ATOMS=(7 3 6 8 9 11 13 19)
M  V30 END COLLECTION
M  V30 END CTAB
M  END
>  <Drug Name>
Spironolactone

>  <Carbon Count>
24

>  <SMILES String>
O=C1CC[C@@]2(C)C(C[C@@H](SC(C)=O)[C@]3([H])[C@]2([H])CC[C@@]4(C)[C@@]3([H])CC[C@]45OC(CC5)=O)=C1

$$$$
Estradiol Cypionate
Actelion Java MolfileCreator 2.0

  0  0  0  0  0  0              0 V3000
M  V30 BEGIN CTAB
M  V30 COUNTS 29 33 0 0 0
M  V30 BEGIN ATOM
M  V30 1 O 2.598 1.0 0.0 0
M  V30 2 C 2.598 0.0 0.0 0
M  V30 3 O 3.4641 -0.5 0.0 0
M  V30 4 C 1.732 -0.5 0.0 0
M  V30 5 C 4.3301 0.0 0.0 0 CFG=2
M  V30 6 C 0.866 0.0 0.0 0
M  V30 7 C 5.2436 -0.4067 0.0 0 CFG=2
M  V30 8 C 4.4346 0.9945 0.0 0
M  V30 9 C 0.0 -0.5 0.0 0
M  V30 10 C 5.9128 0.3364 0.0 0 CFG=1
M  V30 11 C 5.5526 -1.3577 0.0 0
M  V30 12 C 4.5005 -1.0758 0.0 0
M  V30 13 C 5.4128 1.2024 0.0 0
M  V30 14 C -0.9135 -0.0932 0.0 0
M  V30 15 C -0.1045 -1.4945 0.0 0
M  V30 16 C 6.8909 0.1284 0.0 0 CFG=1
M  V30 17 C 6.5308 -1.5657 0.0 0
M  V30 18 C -1.5826 -0.8364 0.0 0
M  V30 19 C -1.0826 -1.7024 0.0 0
M  V30 20 C 7.1999 -0.8225 0.0 0 CFG=2
M  V30 21 C 7.56 0.8716 0.0 0
M  V30 22 C 8.1781 -1.0304 0.0 0
M  V30 23 C 8.5382 0.6637 0.0 0
M  V30 24 C 8.8472 -0.2873 0.0 0
M  V30 25 C 8.4871 -1.9815 0.0 0
M  V30 26 C 9.8253 -0.4952 0.0 0
M  V30 27 C 9.4652 -2.1894 0.0 0
M  V30 28 C 10.1344 -1.4462 0.0 0
M  V30 29 O 11.1125 -1.6542 0.0 0
M  V30 END ATOM
M  V30 BEGIN BOND
M  V30 1 2 1 2
M  V30 2 1 2 3
M  V30 3 1 2 4
M  V30 4 1 5 3 CFG=1
M  V30 5 1 4 6
M  V30 6 1 5 7
M  V30 7 1 5 8
M  V30 8 1 6 9
M  V30 9 1 7 10
M  V30 10 1 7 11
M  V30 11 1 7 12 CFG=1
M  V30 12 1 8 13
M  V30 13 1 9 14
M  V30 14 1 9 15
M  V30 15 1 10 16
M  V30 16 1 11 17
M  V30 17 1 14 18
M  V30 18 1 15 19
M  V30 19 1 16 20
M  V30 20 1 16 21 CFG=3
M  V30 21 1 20 22
M  V30 22 1 21 23
M  V30 23 2 22 24
M  V30 24 1 22 25
M  V30 25 1 24 26
M  V30 26 2 25 27
M  V30 27 2 26 28
M  V30 28 1 28 29
M  V30 29 1 10 13 CFG=1
M  V30 30 1 20 17 CFG=1
M  V30 31 1 18 19
M  V30 32 1 23 24
M  V30 33 1 27 28
M  V30 END BOND
M  V30 BEGIN COLLECTION
M  V30 MDLV30/STERAC1 ATOMS=(5 5 7 10 16 20)
M  V30 END COLLECTION
M  V30 END CTAB
M  END
>  <Drug Name>
Estradiol Cypionate

>  <Carbon Count>
26

>  <SMILES String>
C[C@]12CC[C@H]3[C@H]([C@@H]1CC[C@@H]2OC(=O)CCC4CCCC4)CCC5=C3C=CC(=C5)O

$$$$
Olodaterol Hydrochloride
Actelion Java MolfileCreator 2.0

  0  0  0  0  0  0              0 V3000
M  V30 BEGIN CTAB
M  V30 COUNTS 29 30 0 0 0
M  V30 BEGIN ATOM
M  V30 1 Cl 9.9439 -1.9142 0.0 0
M  V30 2 O -1.1063 -4.5468 0.0 0
M  V30 3 C 0.3708 -4.8073 0.0 0
M  V30 4 N 0.8839 -6.2169 0.0 0
M  V30 5 C 1.335 -3.6582 0.0 0
M  V30 6 C 2.3611 -6.4773 0.0 0
M  V30 7 O 2.8122 -3.9187 0.0 0
M  V30 8 C 3.3253 -5.3283 0.0 0
M  V30 9 C 2.8741 -7.8869 0.0 0
M  V30 10 C 4.8025 -5.5887 0.0 0
M  V30 11 C 4.3513 -8.1473 0.0 0
M  V30 12 C 5.3155 -6.9983 0.0 0
M  V30 13 C 5.7667 -4.4397 0.0 0 CFG=1
M  V30 14 O 4.8644 -9.5569 0.0 0
M  V30 15 O 7.2439 -4.7001 0.0 0
M  V30 16 C 5.2536 -3.0301 0.0 0
M  V30 17 N 6.2178 -1.8811 0.0 0
M  V30 18 C 5.7048 -0.4715 0.0 0
M  V30 19 C 6.669 0.6775 0.0 0
M  V30 20 C 4.5557 0.4926 0.0 0
M  V30 21 C 4.2953 -0.9845 0.0 0
M  V30 22 C 6.1559 2.087 0.0 0
M  V30 23 C 7.1201 3.2361 0.0 0
M  V30 24 C 4.6787 2.3475 0.0 0
M  V30 25 C 6.6071 4.6456 0.0 0
M  V30 26 C 4.1657 3.757 0.0 0
M  V30 27 C 5.1299 4.9061 0.0 0
M  V30 28 O 4.6168 6.3156 0.0 0
M  V30 29 C 3.1396 6.5761 0.0 0
M  V30 END ATOM
M  V30 BEGIN BOND
M  V30 1 2 2 3
M  V30 2 1 3 4
M  V30 3 1 3 5
M  V30 4 1 4 6
M  V30 5 1 5 7
M  V30 6 2 6 8
M  V30 7 1 6 9
M  V30 8 1 8 10
M  V30 9 2 9 11
M  V30 10 2 10 12
M  V30 11 1 10 13
M  V30 12 1 11 14
M  V30 13 1 13 15 CFG=3
M  V30 14 1 13 16
M  V30 15 1 16 17
M  V30 16 1 17 18
M  V30 17 1 18 19
M  V30 18 1 18 20
M  V30 19 1 18 21
M  V30 20 1 19 22
M  V30 21 2 22 23
M  V30 22 1 22 24
M  V30 23 1 23 25
M  V30 24 2 24 26
M  V30 25 2 25 27
M  V30 26 1 27 28
M  V30 27 1 28 29
M  V30 28 1 7 8
M  V30 29 1 11 12
M  V30 30 1 26 27
M  V30 END BOND
M  V30 BEGIN COLLECTION
M  V30 MDLV30/STERAC1 ATOMS=(1 13)
M  V30 END COLLECTION
M  V30 END CTAB
M  END
>  <Drug Name>
Olodaterol Hydrochloride

>  <Carbon Count>
21

>  <SMILES String>
O=C1COC2=C(C=C(C=C2N1)O)[C@H](CNC(C)(CC3=CC=C(C=C3)OC)C)O.[H]Cl

$$$$
Lisinopril
Actelion Java MolfileCreator 2.0

  0  0  0  0  0  0              0 V3000
M  V30 BEGIN CTAB
M  V30 COUNTS 29 30 0 0 0
M  V30 BEGIN ATOM
M  V30 1 O 4.7654 4.1418 0.0 0
M  V30 2 C 4.5575 3.1636 0.0 0
M  V30 3 O 3.6064 2.8546 0.0 0
M  V30 4 C 5.3006 2.4945 0.0 0 CFG=1
M  V30 5 N 5.1961 1.4999 0.0 0
M  V30 6 C 6.2788 2.7024 0.0 0
M  V30 7 C 4.3301 0.9999 0.0 0
M  V30 8 C 6.1096 1.0932 0.0 0
M  V30 9 C 6.7788 1.8364 0.0 0
M  V30 10 O 3.4641 1.5 0.0 0
M  V30 11 C 4.3301 0.0 0.0 0 CFG=1
M  V30 12 N 5.1961 -0.5 0.0 0
M  V30 13 C 3.4641 -0.5 0.0 0
M  V30 14 C 5.1961 -1.5 0.0 0 CFG=2
M  V30 15 C 2.598 0.0 0.0 0
M  V30 16 C 4.3301 -2.0 0.0 0
M  V30 17 C 6.0621 -2.0 0.0 0
M  V30 18 C 1.732 -0.5 0.0 0
M  V30 19 O 4.3301 -3.0 0.0 0
M  V30 20 O 3.4641 -1.5 0.0 0
M  V30 21 C 6.0621 -3.0 0.0 0
M  V30 22 C 0.866 0.0 0.0 0
M  V30 23 C 6.9282 -3.5 0.0 0
M  V30 24 N 0.0 -0.5 0.0 0
M  V30 25 C 7.7942 -3.0 0.0 0
M  V30 26 C 6.9282 -4.5 0.0 0
M  V30 27 C 8.6602 -3.5 0.0 0
M  V30 28 C 7.7942 -5.0 0.0 0
M  V30 29 C 8.6602 -4.5 0.0 0
M  V30 END ATOM
M  V30 BEGIN BOND
M  V30 1 2 1 2
M  V30 2 1 2 3
M  V30 3 1 4 2 CFG=3
M  V30 4 1 4 5
M  V30 5 1 4 6
M  V30 6 1 5 7
M  V30 7 1 5 8
M  V30 8 1 6 9
M  V30 9 2 7 10
M  V30 10 1 7 11
M  V30 11 1 11 12 CFG=1
M  V30 12 1 11 13
M  V30 13 1 14 12 CFG=1
M  V30 14 1 13 15
M  V30 15 1 14 16
M  V30 16 1 14 17
M  V30 17 1 15 18
M  V30 18 2 16 19
M  V30 19 1 16 20
M  V30 20 1 17 21
M  V30 21 1 18 22
M  V30 22 1 21 23
M  V30 23 1 22 24
M  V30 24 2 23 25
M  V30 25 1 23 26
M  V30 26 1 25 27
M  V30 27 2 26 28
M  V30 28 2 27 29
M  V30 29 1 8 9
M  V30 30 1 28 29
M  V30 END BOND
M  V30 BEGIN COLLECTION
M  V30 MDLV30/STEABS ATOMS=(3 4 11 14)
M  V30 END COLLECTION
M  V30 END CTAB
M  END
>  <Drug Name>
Lisinopril

>  <Carbon Count>
21

>  <SMILES String>
O=C([C@H]1N(CCC1)C([C@@H](N[C@@H](CCC2=CC=CC=C2)C(O)=O)CCCCN)=O)O

$$$$
Diltiazem
Actelion Java MolfileCreator 2.0

  0  0  0  0  0  0              0 V3000
M  V30 BEGIN CTAB
M  V30 COUNTS 29 31 0 0 0
M  V30 BEGIN ATOM
M  V30 1 S 7.6668 -3.0425 0.0 0
M  V30 2 C 6.1836 -3.266 0.0 0
M  V30 3 C 8.4168 -1.7434 0.0 0 CFG=1
M  V30 4 C 5.084 -2.2458 0.0 0
M  V30 5 C 5.8498 -4.7284 0.0 0
M  V30 6 C 9.9126 -1.8555 0.0 0
M  V30 7 C 7.8688 -0.3471 0.0 0 CFG=1
M  V30 8 N 5.1961 -0.75 0.0 0
M  V30 9 C 3.6506 -2.6879 0.0 0
M  V30 10 C 4.4164 -5.1705 0.0 0
M  V30 11 C 10.5635 -3.207 0.0 0
M  V30 12 C 10.7576 -0.6162 0.0 0
M  V30 13 O 8.8891 0.7524 0.0 0
M  V30 14 C 6.4355 0.0949 0.0 0
M  V30 15 C 3.8971 0.0 0.0 0
M  V30 16 C 3.3169 -4.1503 0.0 0
M  V30 17 C 12.0593 -3.3191 0.0 0
M  V30 18 C 12.2534 -0.7282 0.0 0
M  V30 19 C 8.4469 2.1857 0.0 0
M  V30 20 O 6.2119 1.5782 0.0 0
M  V30 21 C 2.598 -0.75 0.0 0
M  V30 22 C 12.9042 -2.0797 0.0 0
M  V30 23 O 6.9846 2.5195 0.0 0
M  V30 24 C 9.4672 3.2853 0.0 0
M  V30 25 N 1.299 0.0 0.0 0
M  V30 26 O 14.4001 -2.1918 0.0 0
M  V30 27 C 1.299 1.5 0.0 0
M  V30 28 C 0.0 -0.75 0.0 0
M  V30 29 C 15.245 -0.9524 0.0 0
M  V30 END ATOM
M  V30 BEGIN BOND
M  V30 1 1 1 2
M  V30 2 1 1 3
M  V30 3 2 2 4
M  V30 4 1 2 5
M  V30 5 1 3 6 CFG=3
M  V30 6 1 3 7
M  V30 7 1 4 8
M  V30 8 1 4 9
M  V30 9 2 5 10
M  V30 10 2 6 11
M  V30 11 1 6 12
M  V30 12 1 7 13 CFG=3
M  V30 13 1 7 14
M  V30 14 1 8 15
M  V30 15 2 9 16
M  V30 16 1 11 17
M  V30 17 2 12 18
M  V30 18 1 13 19
M  V30 19 2 14 20
M  V30 20 1 15 21
M  V30 21 2 17 22
M  V30 22 2 19 23
M  V30 23 1 19 24
M  V30 24 1 21 25
M  V30 25 1 22 26
M  V30 26 1 25 27
M  V30 27 1 25 28
M  V30 28 1 26 29
M  V30 29 1 8 14
M  V30 30 1 10 16
M  V30 31 1 18 22
M  V30 END BOND
M  V30 BEGIN COLLECTION
M  V30 MDLV30/STEABS ATOMS=(2 3 7)
M  V30 END COLLECTION
M  V30 END CTAB
M  END
>  <Drug Name>
Diltiazem

>  <Carbon Count>
22

>  <SMILES String>
O=C1[C@@H]([C@@H](SC2=C(N1CCN(C)C)C=CC=C2)C3=CC=C(OC)C=C3)OC(C)=O

$$$$
Quinidine Sulfate
Actelion Java MolfileCreator 2.0

  0  0  0  0  0  0              0 V3000
M  V30 BEGIN CTAB
M  V30 COUNTS 55 58 0 0 0
M  V30 BEGIN ATOM
M  V30 1 S -0.1228 -4.4483 0.0 0
M  V30 2 O 0.5199 -3.6823 0.0 0
M  V30 3 O -1.1076 -4.2747 0.0 0
M  V30 4 O 0.8619 -4.622 0.0 0
M  V30 5 O 0.2191 -5.388 0.0 0
M  V30 6 O 2.3231 -2.513 0.0 0
M  V30 7 C 2.6651 -1.5733 0.0 0
M  V30 8 C 2.9659 -3.2791 0.0 0
M  V30 9 C 3.6499 -1.3997 0.0 0
M  V30 10 C 2.0223 -0.8073 0.0 0
M  V30 11 C 3.992 -0.46 0.0 0
M  V30 12 C 2.3644 0.1323 0.0 0
M  V30 13 C 3.3492 0.3059 0.0 0
M  V30 14 C 4.9768 -0.2864 0.0 0
M  V30 15 N 3.6912 1.2456 0.0 0
M  V30 16 C 5.3188 0.6532 0.0 0
M  V30 17 C 5.6195 -1.0524 0.0 0 CFG=2
M  V30 18 C 4.676 1.4193 0.0 0
M  V30 19 O 5.2775 -1.9921 0.0 0
M  V30 20 C 6.6044 -0.8788 0.0 0 CFG=2
M  V30 21 N 7.2471 -1.6448 0.0 0
M  V30 22 C 6.9464 0.0608 0.0 0
M  V30 23 C 8.2408 -1.3415 0.0 0
M  V30 24 C 9.0457 -1.7673 0.0 0
M  V30 25 C 7.9312 0.2345 0.0 0 CFG=1
M  V30 26 C 8.4928 -0.6401 0.0 0 CFG=1
M  V30 27 C 9.3934 -0.8581 0.0 0
M  V30 28 C 9.5646 -0.3499 0.0 0
M  V30 29 C 9.9008 0.5818 0.0 0
M  V30 30 O 9.9962 -4.3069 0.0 0
M  V30 31 C 9.6541 -5.2466 0.0 0
M  V30 32 C 9.3534 -3.5409 0.0 0
M  V30 33 C 8.6693 -5.4203 0.0 0
M  V30 34 C 10.2969 -6.0127 0.0 0
M  V30 35 C 8.3273 -6.36 0.0 0
M  V30 36 C 9.9549 -6.9523 0.0 0
M  V30 37 C 8.9701 -7.126 0.0 0
M  V30 38 C 7.3425 -6.5336 0.0 0
M  V30 39 N 8.6281 -8.0657 0.0 0
M  V30 40 C 7.0005 -7.4733 0.0 0
M  V30 41 C 6.6997 -5.7676 0.0 0 CFG=2
M  V30 42 C 7.6433 -8.2393 0.0 0
M  V30 43 O 7.0417 -4.8279 0.0 0
M  V30 44 C 5.7149 -5.9412 0.0 0 CFG=2
M  V30 45 N 5.0721 -5.1752 0.0 0
M  V30 46 C 5.3729 -6.8809 0.0 0
M  V30 47 C 4.0785 -5.4784 0.0 0
M  V30 48 C 3.2735 -5.0526 0.0 0
M  V30 49 C 4.3881 -7.0545 0.0 0 CFG=1
M  V30 50 C 3.8264 -6.1799 0.0 0 CFG=1
M  V30 51 C 2.9259 -5.9618 0.0 0
M  V30 52 C 2.7547 -6.4701 0.0 0
M  V30 53 C 2.4185 -7.4018 0.0 0
M  V30 54 O 4.5264 -9.5175 0.0 0
M  V30 55 O 11.7962 -3.6224 0.0 0
M  V30 END ATOM
M  V30 BEGIN BOND
M  V30 1 2 1 2
M  V30 2 2 1 3
M  V30 3 1 1 4
M  V30 4 1 1 5
M  V30 5 1 6 7
M  V30 6 1 6 8
M  V30 7 2 7 9
M  V30 8 1 7 10
M  V30 9 1 9 11
M  V30 10 2 10 12
M  V30 11 1 11 13
M  V30 12 2 11 14
M  V30 13 2 13 15
M  V30 14 1 14 16
M  V30 15 1 14 17
M  V30 16 1 15 18
M  V30 17 1 17 19 CFG=1
M  V30 18 1 17 20
M  V30 19 1 20 21 CFG=1
M  V30 20 1 20 22
M  V30 21 1 21 23
M  V30 22 1 21 24
M  V30 23 1 25 22 CFG=3
M  V30 24 1 23 26
M  V30 25 1 24 27
M  V30 26 1 26 28 CFG=1
M  V30 27 2 28 29
M  V30 28 1 30 31
M  V30 29 1 30 32
M  V30 30 2 31 33
M  V30 31 1 31 34
M  V30 32 1 33 35
M  V30 33 2 34 36
M  V30 34 1 35 37
M  V30 35 2 35 38
M  V30 36 2 37 39
M  V30 37 1 38 40
M  V30 38 1 38 41
M  V30 39 1 39 42
M  V30 40 1 41 43 CFG=1
M  V30 41 1 41 44
M  V30 42 1 44 45 CFG=1
M  V30 43 1 44 46
M  V30 44 1 45 47
M  V30 45 1 45 48
M  V30 46 1 49 46 CFG=3
M  V30 47 1 47 50
M  V30 48 1 48 51
M  V30 49 1 50 52 CFG=1
M  V30 50 2 52 53
M  V30 51 1 12 13
M  V30 52 2 16 18
M  V30 53 1 25 26
M  V30 54 1 25 27
M  V30 55 1 36 37
M  V30 56 2 40 42
M  V30 57 1 49 50
M  V30 58 1 49 51
M  V30 END BOND
M  V30 BEGIN COLLECTION
M  V30 MDLV30/STERAC1 ATOMS=(8 17 20 25 26 41 44 49 50)
M  V30 END COLLECTION
M  V30 END CTAB
M  END
>  <Drug Name>
Quinidine Sulfate

>  <Carbon Count>
20

>  <SMILES String>
O[C@H]([C@@H]1C[C@H]2[C@H](C[N@@]1CC2)C=C)C3=CC=NC4=CC=C(OC)C=C34.O=S(O)(O)=O

$$$$
Ivacaftor
Actelion Java MolfileCreator 2.0

  0  0  0  0  0  0              0 V3000
M  V30 BEGIN CTAB
M  V30 COUNTS 29 31 0 0 0
M  V30 BEGIN ATOM
M  V30 1 O 1.732 1.4999 0.0 0
M  V30 2 C 2.598 1.0 0.0 0
M  V30 3 C 2.598 0.0 0.0 0
M  V30 4 C 3.4641 1.4999 0.0 0
M  V30 5 C 1.732 -0.5 0.0 0
M  V30 6 C 3.4641 -0.5 0.0 0
M  V30 7 C 4.3301 1.0 0.0 0
M  V30 8 C 3.4641 2.4999 0.0 0
M  V30 9 O 1.732 -1.5 0.0 0
M  V30 10 N 0.866 0.0 0.0 0
M  V30 11 N 4.3301 0.0 0.0 0
M  V30 12 C 5.1961 1.5 0.0 0
M  V30 13 C 4.3301 3.0 0.0 0
M  V30 14 C 0.0 -0.5 0.0 0
M  V30 15 C 5.1961 2.5 0.0 0
M  V30 16 C -0.866 0.0 0.0 0
M  V30 17 C 0.0 -1.4999 0.0 0
M  V30 18 C -1.732 -0.4999 0.0 0
M  V30 19 C -0.866 1.0 0.0 0
M  V30 20 C -0.866 -1.9999 0.0 0
M  V30 21 C -1.732 -1.4999 0.0 0
M  V30 22 C -1.866 1.0 0.0 0
M  V30 23 C -0.866 2.0 0.0 0
M  V30 24 C 0.1339 0.9999 0.0 0
M  V30 25 O -0.866 -2.9999 0.0 0
M  V30 26 C -2.598 -1.9999 0.0 0
M  V30 27 C -2.098 -2.866 0.0 0
M  V30 28 C -3.4641 -2.4999 0.0 0
M  V30 29 C -3.098 -1.1339 0.0 0
M  V30 END ATOM
M  V30 BEGIN BOND
M  V30 1 2 1 2
M  V30 2 1 2 3
M  V30 3 1 2 4
M  V30 4 1 3 5
M  V30 5 2 3 6
M  V30 6 2 4 7
M  V30 7 1 4 8
M  V30 8 2 5 9
M  V30 9 1 5 10
M  V30 10 1 6 11
M  V30 11 1 7 12
M  V30 12 2 8 13
M  V30 13 1 10 14
M  V30 14 2 12 15
M  V30 15 2 14 16
M  V30 16 1 14 17
M  V30 17 1 16 18
M  V30 18 1 16 19
M  V30 19 2 17 20
M  V30 20 2 18 21
M  V30 21 1 19 22
M  V30 22 1 19 23
M  V30 23 1 19 24
M  V30 24 1 20 25
M  V30 25 1 21 26
M  V30 26 1 26 27
M  V30 27 1 26 28
M  V30 28 1 26 29
M  V30 29 1 7 11
M  V30 30 1 13 15
M  V30 31 1 20 21
M  V30 END BOND
M  V30 END CTAB
M  END
>  <Drug Name>
Ivacaftor

>  <Carbon Count>
24

>  <SMILES String>
CC(C)(C1=CC(C(C)(C)C)=C(C=C1NC(C2=CNC3=CC=CC=C3C2=O)=O)O)C

$$$$
Colchicine
Actelion Java MolfileCreator 2.0

  0  0  0  0  0  0              0 V3000
M  V30 BEGIN CTAB
M  V30 COUNTS 29 31 0 0 0
M  V30 BEGIN ATOM
M  V30 1 O 2.9956 -3.1864 0.0 0
M  V30 2 C 3.5589 -2.3602 0.0 0
M  V30 3 C 4.5478 -2.5092 0.0 0
M  V30 4 C 3.0589 -1.4941 0.0 0
M  V30 5 O 4.8425 -3.4648 0.0 0
M  V30 6 C 5.2808 -1.829 0.0 0
M  V30 7 C 3.4243 -0.5633 0.0 0
M  V30 8 C 5.8174 -3.6873 0.0 0
M  V30 9 C 5.2061 -0.8318 0.0 0
M  V30 10 C 4.3798 -0.2685 0.0 0
M  V30 11 C 2.598 0.0 0.0 0 CFG=1
M  V30 12 C 4.7452 0.6623 0.0 0
M  V30 13 N 1.732 -0.5 0.0 0
M  V30 14 C 2.5233 0.9972 0.0 0
M  V30 15 C 5.7452 0.6623 0.0 0
M  V30 16 C 4.2452 1.5283 0.0 0
M  V30 17 C 0.866 0.0 0.0 0
M  V30 18 C 3.2563 1.6773 0.0 0
M  V30 19 O 6.2452 -0.2037 0.0 0
M  V30 20 C 6.2452 1.5283 0.0 0
M  V30 21 C 4.7452 2.3943 0.0 0
M  V30 22 O 0.866 1.0 0.0 0
M  V30 23 C 0.0 -0.5 0.0 0
M  V30 24 C 7.2452 -0.2037 0.0 0
M  V30 25 O 7.2452 1.5283 0.0 0
M  V30 26 C 5.7452 2.3943 0.0 0
M  V30 27 C 7.7452 2.3943 0.0 0
M  V30 28 O 6.2452 3.2603 0.0 0
M  V30 29 C 5.7452 4.1264 0.0 0
M  V30 END ATOM
M  V30 BEGIN BOND
M  V30 1 2 1 2
M  V30 2 1 2 3
M  V30 3 1 2 4
M  V30 4 1 3 5
M  V30 5 2 3 6
M  V30 6 2 4 7
M  V30 7 1 5 8
M  V30 8 1 6 9
M  V30 9 1 7 10
M  V30 10 1 7 11
M  V30 11 1 10 12
M  V30 12 1 11 13 CFG=1
M  V30 13 1 11 14
M  V30 14 2 12 15
M  V30 15 1 12 16
M  V30 16 1 13 17
M  V30 17 1 14 18
M  V30 18 1 15 19
M  V30 19 1 15 20
M  V30 20 2 16 21
M  V30 21 2 17 22
M  V30 22 1 17 23
M  V30 23 1 19 24
M  V30 24 1 20 25
M  V30 25 2 20 26
M  V30 26 1 25 27
M  V30 27 1 26 28
M  V30 28 1 28 29
M  V30 29 2 9 10
M  V30 30 1 16 18
M  V30 31 1 21 26
M  V30 END BOND
M  V30 BEGIN COLLECTION
M  V30 MDLV30/STERAC1 ATOMS=(1 11)
M  V30 END COLLECTION
M  V30 END CTAB
M  END
>  <Drug Name>
Colchicine

>  <Carbon Count>
22

>  <SMILES String>
O=C1C(OC)=CC=C2C([C@@H](NC(C)=O)CCC3=C2C(OC)=C(OC)C(OC)=C3)=C1

$$$$
Simvastatin
Actelion Java MolfileCreator 2.0

  0  0  0  0  0  0              0 V3000
M  V30 BEGIN CTAB
M  V30 COUNTS 30 32 0 0 0
M  V30 BEGIN ATOM
M  V30 1 O 0.0 -2.25 0.0 0
M  V30 2 C 0.0 -0.75 0.0 0
M  V30 3 O 1.299 0.0 0.0 0
M  V30 4 C -1.299 0.0 0.0 0
M  V30 5 C 1.299 1.5 0.0 0 CFG=1
M  V30 6 C -1.299 1.5 0.0 0 CFG=1
M  V30 7 C 0.0 2.25 0.0 0
M  V30 8 C 2.598 2.25 0.0 0
M  V30 9 O -2.598 2.25 0.0 0
M  V30 10 C 3.8971 1.5 0.0 0
M  V30 11 C 5.1961 2.25 0.0 0 CFG=2
M  V30 12 C 6.4951 1.5 0.0 0 CFG=2
M  V30 13 C 5.1961 3.75 0.0 0 CFG=2
M  V30 14 C 7.7942 2.25 0.0 0
M  V30 15 C 6.4951 0.0 0.0 0 CFG=1
M  V30 16 C 6.4951 4.5 0.0 0
M  V30 17 C 3.8971 4.5 0.0 0
M  V30 18 C 7.7942 3.75 0.0 0
M  V30 19 C 9.0932 1.5 0.0 0
M  V30 20 O 5.1961 -0.75 0.0 0
M  V30 21 C 7.7942 -0.75 0.0 0
M  V30 22 C 9.0932 0.0 0.0 0 CFG=1
M  V30 23 C 5.1961 -2.25 0.0 0
M  V30 24 C 10.3923 -0.75 0.0 0
M  V30 25 O 6.4951 -3.0 0.0 0
M  V30 26 C 3.8971 -3.0 0.0 0
M  V30 27 C 3.8971 -4.5 0.0 0
M  V30 28 C 2.3971 -3.0 0.0 0
M  V30 29 C 3.1471 -1.7009 0.0 0
M  V30 30 C 2.598 -5.25 0.0 0
M  V30 END ATOM
M  V30 BEGIN BOND
M  V30 1 2 1 2
M  V30 2 1 2 3
M  V30 3 1 2 4
M  V30 4 1 3 5
M  V30 5 1 4 6
M  V30 6 1 5 7
M  V30 7 1 5 8 CFG=1
M  V30 8 1 6 9 CFG=3
M  V30 9 1 8 10
M  V30 10 1 11 10 CFG=1
M  V30 11 1 11 12
M  V30 12 1 11 13
M  V30 13 1 12 14 CFG=3
M  V30 14 1 12 15
M  V30 15 1 13 16
M  V30 16 1 13 17 CFG=1
M  V30 17 1 14 18
M  V30 18 2 14 19
M  V30 19 1 15 20 CFG=3
M  V30 20 1 15 21
M  V30 21 1 19 22
M  V30 22 1 20 23
M  V30 23 1 22 24 CFG=3
M  V30 24 2 23 25
M  V30 25 1 23 26
M  V30 26 1 26 27
M  V30 27 1 26 28
M  V30 28 1 26 29
M  V30 29 1 27 30
M  V30 30 1 6 7
M  V30 31 2 16 18
M  V30 32 1 21 22
M  V30 END BOND
M  V30 BEGIN COLLECTION
M  V30 MDLV30/STEABS ATOMS=(7 5 6 11 12 13 15 22)
M  V30 END COLLECTION
M  V30 END CTAB
M  END
>  <Drug Name>
Simvastatin

>  <Carbon Count>
25

>  <SMILES String>
CCC(C)(C(O[C@@H]1C[C@@H](C=C2C=C[C@H]([C@H]([C@]12[H])CC[C@@H]3C[C@@H](CC(O3)=O)O)C)C)=O)C

$$$$
Eprosartan
Actelion Java MolfileCreator 2.0

  0  0  0  0  0  0              0 V3000
M  V30 BEGIN CTAB
M  V30 COUNTS 30 32 0 0 0
M  V30 BEGIN ATOM
M  V30 1 S 2.7026 -2.9945 0.0 0
M  V30 2 C 2.598 -1.9999 0.0 0
M  V30 3 C 3.6807 -3.2024 0.0 0
M  V30 4 C 3.5116 -1.5932 0.0 0
M  V30 5 C 1.732 -1.4999 0.0 0
M  V30 6 C 4.1807 -2.3364 0.0 0
M  V30 7 C 1.732 -0.5 0.0 0
M  V30 8 C 2.598 0.0 0.0 0
M  V30 9 C 0.866 0.0 0.0 0
M  V30 10 O 2.598 0.9999 0.0 0
M  V30 11 O 3.4641 -0.4999 0.0 0
M  V30 12 C 0.0 -0.5 0.0 0
M  V30 13 N -0.9135 -0.0932 0.0 0
M  V30 14 C -0.1045 -1.4945 0.0 0
M  V30 15 C -1.5826 -0.8364 0.0 0
M  V30 16 C -1.1214 0.8848 0.0 0
M  V30 17 N -1.0826 -1.7024 0.0 0
M  V30 18 C -2.5771 -0.7318 0.0 0
M  V30 19 C -2.0725 1.1939 0.0 0
M  V30 20 C -3.1649 -1.5408 0.0 0
M  V30 21 C -2.2804 2.172 0.0 0
M  V30 22 C -2.8156 0.5247 0.0 0
M  V30 23 C -4.1595 -1.4363 0.0 0
M  V30 24 C -3.2314 2.481 0.0 0
M  V30 25 C -3.7667 0.8337 0.0 0
M  V30 26 C -4.7472 -2.2453 0.0 0
M  V30 27 C -3.9746 1.8119 0.0 0
M  V30 28 C -4.9256 2.1209 0.0 0
M  V30 29 O -5.1335 3.099 0.0 0
M  V30 30 O -5.6688 1.4518 0.0 0
M  V30 END ATOM
M  V30 BEGIN BOND
M  V30 1 1 1 2
M  V30 2 1 1 3
M  V30 3 2 2 4
M  V30 4 1 2 5
M  V30 5 2 3 6
M  V30 6 1 5 7
M  V30 7 1 7 8
M  V30 8 2 7 9
M  V30 9 2 8 10
M  V30 10 1 8 11
M  V30 11 1 9 12
M  V30 12 1 12 13
M  V30 13 2 12 14
M  V30 14 1 13 15
M  V30 15 1 13 16
M  V30 16 1 14 17
M  V30 17 1 15 18
M  V30 18 1 16 19
M  V30 19 1 18 20
M  V30 20 2 19 21
M  V30 21 1 19 22
M  V30 22 1 20 23
M  V30 23 1 21 24
M  V30 24 2 22 25
M  V30 25 1 23 26
M  V30 26 2 24 27
M  V30 27 1 27 28
M  V30 28 2 28 29
M  V30 29 1 28 30
M  V30 30 1 4 6
M  V30 31 2 15 17
M  V30 32 1 25 27
M  V30 END BOND
M  V30 END CTAB
M  END
>  <Drug Name>
Eprosartan

>  <Carbon Count>
23

>  <SMILES String>
OC(C1=CC=C(CN2C(/C=C(CC3=CC=CS3)/C(O)=O)=CN=C2CCCC)C=C1)=O

$$$$
Testosterone Cypionate
Actelion Java MolfileCreator 2.0

  0  0  0  0  0  0              0 V3000
M  V30 BEGIN CTAB
M  V30 COUNTS 30 34 0 0 0
M  V30 BEGIN ATOM
M  V30 1 O 9.4331 10.0512 0.0 0
M  V30 2 C 8.9696 8.6247 0.0 0
M  V30 3 C 9.9733 7.5099 0.0 0
M  V30 4 C 7.5023 8.3128 0.0 0
M  V30 5 C 9.5097 6.0834 0.0 0
M  V30 6 C 7.0388 6.8862 0.0 0
M  V30 7 C 8.0425 5.7715 0.0 0 CFG=1
M  V30 8 C 10.5134 4.9686 0.0 0
M  V30 9 C 7.579 4.3449 0.0 0 CFG=1
M  V30 10 C 6.5753 5.4596 0.0 0
M  V30 11 C 10.0499 3.5421 0.0 0
M  V30 12 C 8.5827 3.2302 0.0 0 CFG=2
M  V30 13 C 6.1118 4.033 0.0 0
M  V30 14 C 8.1192 1.8036 0.0 0 CFG=2
M  V30 15 C 5.6482 2.6065 0.0 0
M  V30 16 C 6.6519 1.4917 0.0 0 CFG=1
M  V30 17 C 8.8692 0.5046 0.0 0
M  V30 18 C 6.4951 0.0 0.0 0 CFG=1
M  V30 19 C 5.2253 1.0282 0.0 0
M  V30 20 C 7.8655 -0.6101 0.0 0
M  V30 21 O 5.1961 -0.75 0.0 0
M  V30 22 C 3.8971 0.0 0.0 0
M  V30 23 O 3.8971 1.5 0.0 0
M  V30 24 C 2.598 -0.75 0.0 0
M  V30 25 C 1.299 0.0 0.0 0
M  V30 26 C 0.0 -0.75 0.0 0
M  V30 27 C -1.3703 -0.1398 0.0 0
M  V30 28 C -0.1567 -2.2417 0.0 0
M  V30 29 C -2.374 -1.2546 0.0 0
M  V30 30 C -1.624 -2.5536 0.0 0
M  V30 END ATOM
M  V30 BEGIN BOND
M  V30 1 2 1 2
M  V30 2 1 2 3
M  V30 3 1 2 4
M  V30 4 2 3 5
M  V30 5 1 4 6
M  V30 6 1 5 7
M  V30 7 1 5 8
M  V30 8 1 7 9
M  V30 9 1 7 10 CFG=1
M  V30 10 1 8 11
M  V30 11 1 9 12
M  V30 12 1 9 13 CFG=1
M  V30 13 1 12 14
M  V30 14 1 13 15
M  V30 15 1 14 16
M  V30 16 1 14 17 CFG=1
M  V30 17 1 16 18
M  V30 18 1 16 19 CFG=1
M  V30 19 1 17 20
M  V30 20 1 18 21 CFG=1
M  V30 21 1 21 22
M  V30 22 2 22 23
M  V30 23 1 22 24
M  V30 24 1 24 25
M  V30 25 1 25 26
M  V30 26 1 26 27
M  V30 27 1 26 28
M  V30 28 1 27 29
M  V30 29 1 28 30
M  V30 30 1 6 7
M  V30 31 1 12 11 CFG=3
M  V30 32 1 15 16
M  V30 33 1 18 20
M  V30 34 1 29 30
M  V30 END BOND
M  V30 BEGIN COLLECTION
M  V30 MDLV30/STERAC1 ATOMS=(6 7 9 12 14 16 18)
M  V30 END COLLECTION
M  V30 END CTAB
M  END
>  <Drug Name>
Testosterone Cypionate

>  <Carbon Count>
27

>  <SMILES String>
O=C1CC[C@]2(C)[C@@]3([H])CC[C@]4(C)[C@@H](OC(CCC5CCCC5)=O)CC[C@@]4([H])[C@]3([H])CCC2=C1

$$$$
Methylprednisolone Acetate
Actelion Java MolfileCreator 2.0

  0  0  0  0  0  0              0 V3000
M  V30 BEGIN CTAB
M  V30 COUNTS 30 33 0 0 0
M  V30 BEGIN ATOM
M  V30 1 O 12.4747 -9.8538 0.0 0
M  V30 2 C 11.4675 -8.7352 0.0 0
M  V30 3 C 9.9952 -9.0482 0.0 0
M  V30 4 C 11.9326 -7.3037 0.0 0
M  V30 5 C 8.9881 -7.9296 0.0 0
M  V30 6 C 10.9255 -6.1852 0.0 0
M  V30 7 C 9.4532 -6.4981 0.0 0 CFG=2
M  V30 8 C 7.5158 -8.2426 0.0 0 CFG=2
M  V30 9 C 8.446 -5.3795 0.0 0 CFG=1
M  V30 10 C 9.9183 -5.0666 0.0 0
M  V30 11 C 6.5086 -7.124 0.0 0
M  V30 12 C 7.0507 -9.6741 0.0 0
M  V30 13 C 8.9112 -3.948 0.0 0 CFG=1
M  V30 14 C 6.9738 -5.6925 0.0 0 CFG=1
M  V30 15 O 10.3834 -3.6351 0.0 0
M  V30 16 C 7.904 -2.8295 0.0 0
M  V30 17 C 5.9666 -4.5739 0.0 0 CFG=1
M  V30 18 C 6.4317 -3.1424 0.0 0 CFG=1
M  V30 19 C 4.4614 -4.5739 0.0 0
M  V30 20 C 5.214 -2.2577 0.0 0 CFG=1
M  V30 21 C 6.8652 -1.7311 0.0 0
M  V30 22 C 3.9963 -3.1424 0.0 0
M  V30 23 O 6.3141 -1.4526 0.0 0
M  V30 24 C 5.214 -0.7525 0.0 0
M  V30 25 O 6.5175 0.0 0.0 0
M  V30 26 C 3.9105 0.0 0.0 0
M  V30 27 O 2.607 -0.7525 0.0 0
M  V30 28 C 1.3035 0.0 0.0 0
M  V30 29 O 1.3035 1.5051 0.0 0
M  V30 30 C 0.0 -0.7525 0.0 0
M  V30 END ATOM
M  V30 BEGIN BOND
M  V30 1 2 1 2
M  V30 2 1 2 3
M  V30 3 1 2 4
M  V30 4 2 3 5
M  V30 5 2 4 6
M  V30 6 1 5 7
M  V30 7 1 5 8
M  V30 8 1 7 9
M  V30 9 1 7 10 CFG=3
M  V30 10 1 8 11
M  V30 11 1 8 12 CFG=1
M  V30 12 1 9 13 CFG=3
M  V30 13 1 9 14
M  V30 14 1 13 15 CFG=3
M  V30 15 1 13 16
M  V30 16 1 14 17
M  V30 17 1 16 18
M  V30 18 1 17 19 CFG=3
M  V30 19 1 18 20
M  V30 20 1 18 21 CFG=3
M  V30 21 1 19 22
M  V30 22 1 20 23 CFG=1
M  V30 23 1 20 24
M  V30 24 2 24 25
M  V30 25 1 24 26
M  V30 26 1 26 27
M  V30 27 1 27 28
M  V30 28 2 28 29
M  V30 29 1 28 30
M  V30 30 1 6 7
M  V30 31 1 14 11 CFG=1
M  V30 32 1 17 18
M  V30 33 1 20 22
M  V30 END BOND
M  V30 BEGIN COLLECTION
M  V30 MDLV30/STERAC1 ATOMS=(8 7 8 9 13 14 17 18 20)
M  V30 END COLLECTION
M  V30 END CTAB
M  END
>  <Drug Name>
Methylprednisolone Acetate

>  <Carbon Count>
24

>  <SMILES String>
O=C1C=C[C@]2(C)[C@@]3([H])[C@@H](O)C[C@]4(C)[C@](C(COC(C)=O)=O)(O)CC[C@@]4([H])[C@]3([H])C[C@H](C)C2=C1

$$$$
Fluorometholone Acetate
Actelion Java MolfileCreator 2.0

  0  0  0  0  0  0              0 V3000
M  V30 BEGIN CTAB
M  V30 COUNTS 30 33 0 0 0
M  V30 BEGIN ATOM
M  V30 1 F -0.0916 -3.9138 0.0 0
M  V30 2 C -0.7225 -3.3966 0.0 0 CFG=2
M  V30 3 C -1.0315 -4.3476 0.0 0 CFG=2
M  V30 4 C 0.2555 -3.1887 0.0 0 CFG=1
M  V30 5 C -1.3916 -2.6534 0.0 0 CFG=2
M  V30 6 C -2.0097 -4.5556 0.0 0
M  V30 7 C -0.3624 -5.0908 0.0 0
M  V30 8 C 0.1965 -4.1397 0.0 0
M  V30 9 O 0.9247 -3.9318 0.0 0
M  V30 10 C 0.526 -2.2714 0.0 0
M  V30 11 C -1.0826 -1.7024 0.0 0 CFG=1
M  V30 12 C -2.3698 -2.8614 0.0 0
M  V30 13 C -2.3187 -5.5066 0.0 0
M  V30 14 C -2.6788 -3.8124 0.0 0 CFG=2
M  V30 15 C -0.6714 -6.0418 0.0 0
M  V30 16 C -0.1045 -1.4945 0.0 0 CFG=1
M  V30 17 C -1.5826 -0.8364 0.0 0
M  V30 18 C -1.6496 -6.2498 0.0 0
M  V30 19 C -3.657 -4.0203 0.0 0
M  V30 20 C 0.0 -0.5 0.0 0 CFG=1
M  V30 21 C 0.9358 -1.3027 0.0 0
M  V30 22 C -0.9135 -0.0932 0.0 0
M  V30 23 O -1.9586 -7.2008 0.0 0
M  V30 24 O 0.866 0.0 0.0 0
M  V30 25 C 0.8179 -0.9322 0.0 0
M  V30 26 C 0.866 0.9999 0.0 0
M  V30 27 O 0.8634 -1.9756 0.0 0
M  V30 28 C 1.7296 -0.5906 0.0 0
M  V30 29 O 1.732 1.4999 0.0 0
M  V30 30 C 0.0 1.5 0.0 0
M  V30 END ATOM
M  V30 BEGIN BOND
M  V30 1 1 2 1 CFG=1
M  V30 2 1 2 3
M  V30 3 1 2 4
M  V30 4 1 2 5
M  V30 5 1 3 6
M  V30 6 1 3 7
M  V30 7 1 3 8 CFG=3
M  V30 8 1 4 9 CFG=3
M  V30 9 1 4 10
M  V30 10 1 5 11
M  V30 11 1 5 12 CFG=1
M  V30 12 2 6 13
M  V30 13 1 6 14
M  V30 14 2 7 15
M  V30 15 1 10 16
M  V30 16 1 11 17 CFG=3
M  V30 17 1 13 18
M  V30 18 1 14 19 CFG=1
M  V30 19 1 16 20
M  V30 20 1 16 21 CFG=3
M  V30 21 1 17 22
M  V30 22 2 18 23
M  V30 23 1 20 24
M  V30 24 1 20 25 CFG=3
M  V30 25 1 24 26
M  V30 26 2 25 27
M  V30 27 1 25 28
M  V30 28 2 26 29
M  V30 29 1 26 30
M  V30 30 1 11 16
M  V30 31 1 12 14
M  V30 32 1 15 18
M  V30 33 1 20 22
M  V30 END BOND
M  V30 BEGIN COLLECTION
M  V30 MDLV30/STERAC1 ATOMS=(8 2 3 4 5 11 14 16 20)
M  V30 END COLLECTION
M  V30 END CTAB
M  END
>  <Drug Name>
Fluorometholone Acetate

>  <Carbon Count>
24

>  <SMILES String>
O=C1C=CC2(C)C([C@@H](C)CC3[C@]2(F)C(O)CC4(C)C3CC[C@]4(OC(C)=O)C(C)=O)=C1

$$$$
Calcipotriene
Actelion Java MolfileCreator 2.0

  0  0  0  0  0  0              0 V3000
M  V30 BEGIN CTAB
M  V30 COUNTS 30 33 0 0 0
M  V30 BEGIN ATOM
M  V30 1 O 15.4553 3.3629 0.0 0
M  V30 2 C 14.4516 4.4777 0.0 0 CFG=2
M  V30 3 C 12.9843 4.1658 0.0 0
M  V30 4 C 14.9151 5.9042 0.0 0
M  V30 5 C 11.9806 5.2805 0.0 0
M  V30 6 C 12.5208 2.7392 0.0 0
M  V30 7 C 13.9114 7.019 0.0 0 CFG=1
M  V30 8 C 10.5134 4.9686 0.0 0
M  V30 9 C 12.4442 6.7071 0.0 0
M  V30 10 O 14.3749 8.4455 0.0 0
M  V30 11 C 10.0499 3.5421 0.0 0
M  V30 12 C 8.5827 3.2302 0.0 0
M  V30 13 C 8.1192 1.8036 0.0 0 CFG=1
M  V30 14 C 7.579 4.3449 0.0 0
M  V30 15 C 6.6519 1.4917 0.0 0 CFG=1
M  V30 16 C 8.8692 0.5046 0.0 0
M  V30 17 C 6.1118 4.033 0.0 0
M  V30 18 C 6.4951 0.0 0.0 0 CFG=2
M  V30 19 C 5.6482 2.6065 0.0 0
M  V30 20 C 5.2253 1.0282 0.0 0
M  V30 21 C 7.8655 -0.6101 0.0 0
M  V30 22 C 5.1961 -0.75 0.0 0 CFG=1
M  V30 23 C 3.8971 0.0 0.0 0
M  V30 24 C 5.1961 -2.25 0.0 0
M  V30 25 C 2.598 -0.75 0.0 0
M  V30 26 C 1.299 0.0 0.0 0 CFG=1
M  V30 27 O 1.299 1.5 0.0 0
M  V30 28 C 0.0 -0.75 0.0 0
M  V30 29 C -1.5 -0.7499 0.0 0
M  V30 30 C -0.75 -2.049 0.0 0
M  V30 END ATOM
M  V30 BEGIN BOND
M  V30 1 1 2 1 CFG=3
M  V30 2 1 2 3
M  V30 3 1 2 4
M  V30 4 1 3 5
M  V30 5 2 3 6
M  V30 6 1 4 7
M  V30 7 2 5 8
M  V30 8 1 5 9
M  V30 9 1 7 10 CFG=1
M  V30 10 1 8 11
M  V30 11 2 11 12
M  V30 12 1 13 12 CFG=3
M  V30 13 1 12 14
M  V30 14 1 13 15
M  V30 15 1 13 16
M  V30 16 1 14 17
M  V30 17 1 15 18
M  V30 18 1 15 19
M  V30 19 1 15 20 CFG=3
M  V30 20 1 16 21
M  V30 21 1 18 22
M  V30 22 1 22 23
M  V30 23 1 22 24 CFG=3
M  V30 24 2 23 25
M  V30 25 1 25 26
M  V30 26 1 26 27 CFG=3
M  V30 27 1 26 28
M  V30 28 1 28 29
M  V30 29 1 28 30
M  V30 30 1 7 9
M  V30 31 1 17 19
M  V30 32 1 18 21 CFG=3
M  V30 33 1 29 30
M  V30 END BOND
M  V30 BEGIN COLLECTION
M  V30 MDLV30/STEABS ATOMS=(7 2 7 13 15 18 22 26)
M  V30 END COLLECTION
M  V30 END CTAB
M  END
>  <Drug Name>
Calcipotriene

>  <Carbon Count>
27

>  <SMILES String>
C[C@@H]([C@H]1CC[C@@H]2[C@]1(C)CCC/C2=C\C=C3C[C@@H](O)C[C@H](O)C\3=C)/C=C/[C@@H](O)C4CC4

$$$$
Ertugliflozin
Actelion Java MolfileCreator 2.0

  0  0  0  0  0  0              0 V3000
M  V30 BEGIN CTAB
M  V30 COUNTS 30 33 0 0 0
M  V30 BEGIN ATOM
M  V30 1 Cl 6.9282 2.5 0.0 0
M  V30 2 C 6.9282 1.5 0.0 0
M  V30 3 C 6.0621 1.0 0.0 0
M  V30 4 C 7.7942 1.0 0.0 0
M  V30 5 C 6.0621 0.0 0.0 0
M  V30 6 C 5.1961 1.5 0.0 0
M  V30 7 C 7.7942 0.0 0.0 0
M  V30 8 C 6.9282 -0.4999 0.0 0
M  V30 9 C 4.3301 1.0 0.0 0
M  V30 10 C 6.9282 -1.4999 0.0 0 CFG=2
M  V30 11 C 3.4641 1.5 0.0 0
M  V30 12 C 4.3301 0.0 0.0 0
M  V30 13 O 6.4929 -2.4003 0.0 0
M  V30 14 O 7.9189 -1.6357 0.0 0
M  V30 15 C 5.577 -1.6851 0.0 0 CFG=1
M  V30 16 C 2.598 0.9999 0.0 0
M  V30 17 C 3.4641 -0.4999 0.0 0
M  V30 18 C 7.2146 -3.0924 0.0 0 CFG=2
M  V30 19 C 8.0959 -2.6199 0.0 0
M  V30 20 O 4.9477 -0.9079 0.0 0
M  V30 21 C 5.2382 -2.626 0.0 0 CFG=1
M  V30 22 C 2.598 0.0 0.0 0
M  V30 23 C 5.8836 -3.3898 0.0 0 CFG=1
M  V30 24 C 7.5631 -4.0297 0.0 0
M  V30 25 O 4.254 -2.803 0.0 0
M  V30 26 O 1.732 -0.5 0.0 0
M  V30 27 O 5.5646 -4.3375 0.0 0
M  V30 28 O 8.5491 -4.1966 0.0 0
M  V30 29 C 0.866 0.0 0.0 0
M  V30 30 C 0.0 -0.5 0.0 0
M  V30 END ATOM
M  V30 BEGIN BOND
M  V30 1 1 1 2
M  V30 2 2 2 3
M  V30 3 1 2 4
M  V30 4 1 3 5
M  V30 5 1 3 6
M  V30 6 2 4 7
M  V30 7 2 5 8
M  V30 8 1 6 9
M  V30 9 1 10 8 CFG=1
M  V30 10 2 9 11
M  V30 11 1 9 12
M  V30 12 1 10 13
M  V30 13 1 10 14
M  V30 14 1 10 15
M  V30 15 1 11 16
M  V30 16 2 12 17
M  V30 17 1 13 18
M  V30 18 1 14 19
M  V30 19 1 15 20 CFG=3
M  V30 20 1 15 21
M  V30 21 2 16 22
M  V30 22 1 18 23
M  V30 23 1 18 24 CFG=1
M  V30 24 1 21 25 CFG=1
M  V30 25 1 22 26
M  V30 26 1 23 27 CFG=3
M  V30 27 1 24 28
M  V30 28 1 26 29
M  V30 29 1 29 30
M  V30 30 1 7 8
M  V30 31 1 17 22
M  V30 32 1 18 19
M  V30 33 1 21 23
M  V30 END BOND
M  V30 BEGIN COLLECTION
M  V30 MDLV30/STERAC1 ATOMS=(5 10 15 18 21 23)
M  V30 END COLLECTION
M  V30 END CTAB
M  END
>  <Drug Name>
Ertugliflozin

>  <Carbon Count>
22

>  <SMILES String>
CCOC1=CC=C(CC2=C(Cl)C=CC([C@@]34[C@H](O)[C@@H](O)[C@H](O)[C@@](CO4)(CO)O3)=C2)C=C1

$$$$
Losartan
Actelion Java MolfileCreator 2.0

  0  0  0  0  0  0              0 V3000
M  V30 BEGIN CTAB
M  V30 COUNTS 30 33 0 0 0
M  V30 BEGIN ATOM
M  V30 1 Cl 6.0412 -0.7318 0.0 0
M  V30 2 C 5.0467 -0.8364 0.0 0
M  V30 3 N 4.3776 -0.0932 0.0 0
M  V30 4 C 4.5467 -1.7024 0.0 0
M  V30 5 C 3.4641 -0.5 0.0 0
M  V30 6 N 3.5686 -1.4945 0.0 0
M  V30 7 C 4.9535 -2.6159 0.0 0
M  V30 8 C 2.598 0.0 0.0 0
M  V30 9 C 2.8254 -2.1636 0.0 0
M  V30 10 O 5.948 -2.7205 0.0 0
M  V30 11 C 1.732 -0.5 0.0 0
M  V30 12 C 3.0333 -3.1418 0.0 0
M  V30 13 C 0.866 0.0 0.0 0
M  V30 14 C 2.2902 -3.8109 0.0 0
M  V30 15 C 3.9844 -3.4508 0.0 0
M  V30 16 C 0.0 -0.5 0.0 0
M  V30 17 C 2.4981 -4.789 0.0 0
M  V30 18 C 4.1923 -4.4289 0.0 0
M  V30 19 C 3.4492 -5.098 0.0 0
M  V30 20 C 3.6571 -6.0762 0.0 0
M  V30 21 C 2.9139 -6.7453 0.0 0
M  V30 22 C 4.6081 -6.3852 0.0 0
M  V30 23 C 1.9629 -6.4363 0.0 0
M  V30 24 C 3.1218 -7.7235 0.0 0
M  V30 25 C 4.8161 -7.3634 0.0 0
M  V30 26 N 1.6539 -5.4853 0.0 0
M  V30 27 N 1.1539 -7.0241 0.0 0
M  V30 28 C 4.0729 -8.0325 0.0 0
M  V30 29 N 0.6539 -5.4853 0.0 0
M  V30 30 N 0.3448 -6.4363 0.0 0
M  V30 END ATOM
M  V30 BEGIN BOND
M  V30 1 1 1 2
M  V30 2 1 2 3
M  V30 3 2 2 4
M  V30 4 2 3 5
M  V30 5 1 4 6
M  V30 6 1 4 7
M  V30 7 1 5 8
M  V30 8 1 6 9
M  V30 9 1 7 10
M  V30 10 1 8 11
M  V30 11 1 9 12
M  V30 12 1 11 13
M  V30 13 2 12 14
M  V30 14 1 12 15
M  V30 15 1 13 16
M  V30 16 1 14 17
M  V30 17 2 15 18
M  V30 18 2 17 19
M  V30 19 1 19 20
M  V30 20 2 20 21
M  V30 21 1 20 22
M  V30 22 1 21 23
M  V30 23 1 21 24
M  V30 24 2 22 25
M  V30 25 1 23 26
M  V30 26 2 23 27
M  V30 27 2 24 28
M  V30 28 2 26 29
M  V30 29 1 27 30
M  V30 30 1 5 6
M  V30 31 1 18 19
M  V30 32 1 25 28
M  V30 33 1 29 30
M  V30 END BOND
M  V30 END CTAB
M  END
>  <Drug Name>
Losartan

>  <Carbon Count>
22

>  <SMILES String>
OCC1=C(N=C(N1CC2=CC=C(C3=C(C4=NN=NN4)C=CC=C3)C=C2)CCCC)Cl

$$$$
Ezetimibe
Actelion Java MolfileCreator 2.0

  0  0  0  0  0  0              0 V3000
M  V30 BEGIN CTAB
M  V30 COUNTS 30 33 0 0 0
M  V30 BEGIN ATOM
M  V30 1 F 8.1529 -3.2071 0.0 0
M  V30 2 C 7.2869 -2.7071 0.0 0
M  V30 3 C 7.2869 -1.7071 0.0 0
M  V30 4 C 6.4208 -3.2071 0.0 0
M  V30 5 C 6.4208 -1.2071 0.0 0
M  V30 6 C 5.5548 -2.7071 0.0 0
M  V30 7 C 5.5548 -1.7071 0.0 0
M  V30 8 N 4.6888 -1.2071 0.0 0
M  V30 9 C 4.43 -0.2411 0.0 0
M  V30 10 C 3.7229 -1.4659 0.0 0 CFG=1
M  V30 11 O 4.93 0.6248 0.0 0
M  V30 12 C 3.4641 -0.5 0.0 0 CFG=1
M  V30 13 C 3.2229 -2.3319 0.0 0
M  V30 14 C 2.598 0.0 0.0 0
M  V30 15 C 2.2229 -2.3319 0.0 0
M  V30 16 C 3.7229 -3.1979 0.0 0
M  V30 17 C 1.732 -0.5 0.0 0
M  V30 18 C 1.7229 -3.1979 0.0 0
M  V30 19 C 3.2229 -4.064 0.0 0
M  V30 20 C 0.866 0.0 0.0 0 CFG=2
M  V30 21 C 2.2229 -4.064 0.0 0
M  V30 22 O 0.866 1.0 0.0 0
M  V30 23 C 0.0 -0.5 0.0 0
M  V30 24 O 1.7229 -4.93 0.0 0
M  V30 25 C -0.866 0.0 0.0 0
M  V30 26 C 0.0 -1.4999 0.0 0
M  V30 27 C -1.732 -0.4999 0.0 0
M  V30 28 C -0.866 -1.9999 0.0 0
M  V30 29 C -1.732 -1.4999 0.0 0
M  V30 30 F -2.598 -1.9999 0.0 0
M  V30 END ATOM
M  V30 BEGIN BOND
M  V30 1 1 1 2
M  V30 2 2 2 3
M  V30 3 1 2 4
M  V30 4 1 3 5
M  V30 5 2 4 6
M  V30 6 2 5 7
M  V30 7 1 7 8
M  V30 8 1 8 9
M  V30 9 1 8 10
M  V30 10 2 9 11
M  V30 11 1 9 12
M  V30 12 1 10 13 CFG=3
M  V30 13 1 12 14 CFG=1
M  V30 14 2 13 15
M  V30 15 1 13 16
M  V30 16 1 14 17
M  V30 17 1 15 18
M  V30 18 2 16 19
M  V30 19 1 17 20
M  V30 20 2 18 21
M  V30 21 1 20 22 CFG=1
M  V30 22 1 20 23
M  V30 23 1 21 24
M  V30 24 2 23 25
M  V30 25 1 23 26
M  V30 26 1 25 27
M  V30 27 2 26 28
M  V30 28 2 27 29
M  V30 29 1 29 30
M  V30 30 1 6 7
M  V30 31 1 10 12
M  V30 32 1 19 21
M  V30 33 1 28 29
M  V30 END BOND
M  V30 BEGIN COLLECTION
M  V30 MDLV30/STEABS ATOMS=(3 10 12 20)
M  V30 END COLLECTION
M  V30 END CTAB
M  END
>  <Drug Name>
Ezetimibe

>  <Carbon Count>
24

>  <SMILES String>
FC1=CC=C([C@@H](O)CC[C@H]2C(N(C3=CC=C(F)C=C3)[C@H]2C4=CC=C(O)C=C4)=O)C=C1

$$$$
Dolutegravir
Actelion Java MolfileCreator 2.0

  0  0  0  0  0  0              0 V3000
M  V30 BEGIN CTAB
M  V30 COUNTS 30 33 0 0 0
M  V30 BEGIN ATOM
M  V30 1 F 4.3301 0.9999 0.0 0
M  V30 2 C 4.3301 0.0 0.0 0
M  V30 3 C 3.4641 -0.5 0.0 0
M  V30 4 C 5.1961 -0.5 0.0 0
M  V30 5 C 3.4641 -1.5 0.0 0
M  V30 6 C 2.598 0.0 0.0 0
M  V30 7 C 5.1961 -1.5 0.0 0
M  V30 8 C 4.3301 -2.0 0.0 0
M  V30 9 N 1.732 -0.5 0.0 0
M  V30 10 F 6.0621 -2.0 0.0 0
M  V30 11 C 0.866 0.0 0.0 0
M  V30 12 O 0.866 1.0 0.0 0
M  V30 13 C 0.0 -0.5 0.0 0
M  V30 14 C -0.866 0.0 0.0 0
M  V30 15 C 0.0 -1.4999 0.0 0
M  V30 16 O -0.866 1.0 0.0 0
M  V30 17 C -1.732 -0.4999 0.0 0
M  V30 18 N -0.866 -1.9999 0.0 0
M  V30 19 O -2.598 0.0 0.0 0
M  V30 20 C -1.732 -1.4999 0.0 0
M  V30 21 C -0.866 -2.9999 0.0 0
M  V30 22 C -2.598 -1.9999 0.0 0
M  V30 23 C -1.732 -3.4999 0.0 0 CFG=1
M  V30 24 O -3.4641 -1.4999 0.0 0
M  V30 25 N -2.598 -2.9999 0.0 0
M  V30 26 O -1.732 -4.4999 0.0 0
M  V30 27 C -3.4641 -3.4999 0.0 0 CFG=1
M  V30 28 C -2.598 -4.9999 0.0 0
M  V30 29 C -3.4641 -4.4999 0.0 0
M  V30 30 C -4.3301 -2.9999 0.0 0
M  V30 END ATOM
M  V30 BEGIN BOND
M  V30 1 1 1 2
M  V30 2 2 2 3
M  V30 3 1 2 4
M  V30 4 1 3 5
M  V30 5 1 3 6
M  V30 6 2 4 7
M  V30 7 2 5 8
M  V30 8 1 6 9
M  V30 9 1 7 10
M  V30 10 1 9 11
M  V30 11 2 11 12
M  V30 12 1 11 13
M  V30 13 1 13 14
M  V30 14 2 13 15
M  V30 15 2 14 16
M  V30 16 1 14 17
M  V30 17 1 15 18
M  V30 18 1 17 19
M  V30 19 2 17 20
M  V30 20 1 18 21
M  V30 21 1 20 22
M  V30 22 1 21 23
M  V30 23 2 22 24
M  V30 24 1 22 25
M  V30 25 1 23 26 CFG=3
M  V30 26 1 25 27
M  V30 27 1 26 28
M  V30 28 1 27 29
M  V30 29 1 27 30 CFG=1
M  V30 30 1 7 8
M  V30 31 1 18 20
M  V30 32 1 23 25
M  V30 33 1 28 29
M  V30 END BOND
M  V30 BEGIN COLLECTION
M  V30 MDLV30/STERAC1 ATOMS=(2 23 27)
M  V30 END COLLECTION
M  V30 END CTAB
M  END
>  <Drug Name>
Dolutegravir

>  <Carbon Count>
20

>  <SMILES String>
[H][C@]12CN3C=C(C(C(O)=C3C(N1[C@@H](CCO2)C)=O)=O)C(NCC4=CC=C(C=C4F)F)=O

$$$$
Pravastatin
Actelion Java MolfileCreator 2.0

  0  0  0  0  0  0              0 V3000
M  V30 BEGIN CTAB
M  V30 COUNTS 30 31 0 0 0
M  V30 BEGIN ATOM
M  V30 1 O 11.6913 4.5 0.0 0
M  V30 2 C 10.3923 3.75 0.0 0
M  V30 3 O 10.3923 2.25 0.0 0
M  V30 4 C 9.0932 4.5 0.0 0 CFG=2
M  V30 5 C 11.6913 1.4999 0.0 0 CFG=2
M  V30 6 C 9.0932 6.0 0.0 0
M  V30 7 C 7.7942 3.75 0.0 0
M  V30 8 C 11.6913 0.0 0.0 0 CFG=1
M  V30 9 C 12.9903 2.2499 0.0 0
M  V30 10 C 7.7942 6.75 0.0 0
M  V30 11 C 12.9903 -0.75 0.0 0
M  V30 12 C 10.3923 -0.75 0.0 0 CFG=2
M  V30 13 C 14.2894 1.4999 0.0 0 CFG=1
M  V30 14 C 12.9903 -2.25 0.0 0
M  V30 15 C 14.2894 0.0 0.0 0
M  V30 16 C 10.3923 -2.25 0.0 0 CFG=2
M  V30 17 C 9.0932 0.0 0.0 0
M  V30 18 O 15.5884 2.2499 0.0 0
M  V30 19 C 11.6913 -3.0 0.0 0
M  V30 20 C 9.0932 -2.9999 0.0 0
M  V30 21 C 7.7942 -0.75 0.0 0
M  V30 22 C 6.4951 0.0 0.0 0 CFG=1
M  V30 23 O 6.4951 1.5 0.0 0
M  V30 24 C 5.1961 -0.75 0.0 0
M  V30 25 C 3.8971 0.0 0.0 0 CFG=1
M  V30 26 O 3.8971 1.5 0.0 0
M  V30 27 C 2.598 -0.75 0.0 0
M  V30 28 C 1.299 0.0 0.0 0
M  V30 29 O 1.299 1.5 0.0 0
M  V30 30 O 0.0 -0.75 0.0 0
M  V30 END ATOM
M  V30 BEGIN BOND
M  V30 1 2 1 2
M  V30 2 1 2 3
M  V30 3 1 2 4
M  V30 4 1 5 3 CFG=1
M  V30 5 1 4 6
M  V30 6 1 4 7 CFG=1
M  V30 7 1 5 8
M  V30 8 1 5 9
M  V30 9 1 6 10
M  V30 10 1 8 11 CFG=1
M  V30 11 1 8 12
M  V30 12 1 9 13
M  V30 13 1 11 14
M  V30 14 2 11 15
M  V30 15 1 12 16
M  V30 16 1 12 17 CFG=3
M  V30 17 1 13 18 CFG=3
M  V30 18 2 14 19
M  V30 19 1 16 20 CFG=3
M  V30 20 1 17 21
M  V30 21 1 21 22
M  V30 22 1 22 23 CFG=3
M  V30 23 1 22 24
M  V30 24 1 24 25
M  V30 25 1 25 26 CFG=3
M  V30 26 1 25 27
M  V30 27 1 27 28
M  V30 28 2 28 29
M  V30 29 1 28 30
M  V30 30 1 13 15
M  V30 31 1 16 19
M  V30 END BOND
M  V30 BEGIN COLLECTION
M  V30 MDLV30/STEABS ATOMS=(8 4 5 8 12 13 16 22 25)
M  V30 END COLLECTION
M  V30 END CTAB
M  END
>  <Drug Name>
Pravastatin

>  <Carbon Count>
23

>  <SMILES String>
OC(C[C@@H](C[C@@H](CC[C@H]1[C@H](C=CC2=C[C@H](C[C@@H]([C@]12[H])OC([C@H](CC)C)=O)O)C)O)O)=O

$$$$
Salmeterol
Actelion Java MolfileCreator 2.0

  0  0  0  0  0  0              0 V3000
M  V30 BEGIN CTAB
M  V30 COUNTS 30 31 0 0 0
M  V30 BEGIN ATOM
M  V30 1 O 12.9903 -0.75 0.0 0
M  V30 2 C 14.2894 0.0 0.0 0
M  V30 3 C 11.6913 0.0 0.0 0
M  V30 4 C 15.5884 -0.75 0.0 0
M  V30 5 C 10.3923 -0.75 0.0 0
M  V30 6 C 16.8874 0.0 0.0 0
M  V30 7 C 9.0932 0.0 0.0 0
M  V30 8 C 18.1865 -0.75 0.0 0
M  V30 9 C 7.7942 -0.75 0.0 0
M  V30 10 C 19.4855 0.0 0.0 0
M  V30 11 C 6.4951 0.0 0.0 0
M  V30 12 C 20.7846 -0.75 0.0 0
M  V30 13 C 19.4855 1.4999 0.0 0
M  V30 14 C 5.1961 -0.75 0.0 0
M  V30 15 C 22.0836 0.0 0.0 0
M  V30 16 C 20.7846 2.2499 0.0 0
M  V30 17 N 3.8971 0.0 0.0 0
M  V30 18 C 22.0836 1.4999 0.0 0
M  V30 19 C 2.598 -0.75 0.0 0
M  V30 20 C 1.299 0.0 0.0 0 CFG=2
M  V30 21 O 1.299 1.5 0.0 0
M  V30 22 C 0.0 -0.75 0.0 0
M  V30 23 C -1.299 0.0 0.0 0
M  V30 24 C 0.0 -2.2499 0.0 0
M  V30 25 C -2.598 -0.7499 0.0 0
M  V30 26 C -1.299 -2.9999 0.0 0
M  V30 27 C -2.598 -2.2499 0.0 0
M  V30 28 C -3.8971 0.0 0.0 0
M  V30 29 O -3.8971 -2.9999 0.0 0
M  V30 30 O -5.1961 -0.7499 0.0 0
M  V30 END ATOM
M  V30 BEGIN BOND
M  V30 1 1 1 2
M  V30 2 1 1 3
M  V30 3 1 2 4
M  V30 4 1 3 5
M  V30 5 1 4 6
M  V30 6 1 5 7
M  V30 7 1 6 8
M  V30 8 1 7 9
M  V30 9 1 8 10
M  V30 10 1 9 11
M  V30 11 2 10 12
M  V30 12 1 10 13
M  V30 13 1 11 14
M  V30 14 1 12 15
M  V30 15 2 13 16
M  V30 16 1 14 17
M  V30 17 2 15 18
M  V30 18 1 17 19
M  V30 19 1 19 20
M  V30 20 1 20 21 CFG=1
M  V30 21 1 20 22
M  V30 22 2 22 23
M  V30 23 1 22 24
M  V30 24 1 23 25
M  V30 25 2 24 26
M  V30 26 2 25 27
M  V30 27 1 25 28
M  V30 28 1 27 29
M  V30 29 1 28 30
M  V30 30 1 16 18
M  V30 31 1 26 27
M  V30 END BOND
M  V30 BEGIN COLLECTION
M  V30 MDLV30/STERAC1 ATOMS=(1 20)
M  V30 END COLLECTION
M  V30 END CTAB
M  END
>  <Drug Name>
Salmeterol

>  <Carbon Count>
25

>  <SMILES String>
OC(C1=CC(CO)=C(O)C=C1)CNCCCCCCOCCCCC2=CC=CC=C2

$$$$
Sacubitril
Actelion Java MolfileCreator 2.0

  0  0  0  0  0  0              0 V3000
M  V30 BEGIN CTAB
M  V30 COUNTS 30 31 0 0 0
M  V30 BEGIN ATOM
M  V30 1 O 11.6913 1.5 0.0 0
M  V30 2 C 11.6913 0.0 0.0 0
M  V30 3 O 12.9903 -0.75 0.0 0
M  V30 4 C 10.3923 -0.75 0.0 0 CFG=1
M  V30 5 C 14.2894 0.0 0.0 0
M  V30 6 C 9.0932 0.0 0.0 0
M  V30 7 C 10.3923 -2.25 0.0 0
M  V30 8 C 15.5884 -0.75 0.0 0
M  V30 9 C 7.7942 -0.75 0.0 0 CFG=2
M  V30 10 N 6.4951 0.0 0.0 0
M  V30 11 C 7.7942 -2.25 0.0 0
M  V30 12 C 6.4951 1.5 0.0 0
M  V30 13 C 6.4951 -2.9999 0.0 0
M  V30 14 O 7.7942 2.25 0.0 0
M  V30 15 C 5.1961 2.25 0.0 0
M  V30 16 C 6.4951 -4.4999 0.0 0
M  V30 17 C 5.1961 -2.2499 0.0 0
M  V30 18 C 5.1961 3.75 0.0 0
M  V30 19 C 5.1961 -5.2499 0.0 0
M  V30 20 C 3.8971 -2.9999 0.0 0
M  V30 21 C 3.8971 4.5 0.0 0
M  V30 22 C 3.8971 -4.4999 0.0 0
M  V30 23 O 2.598 3.75 0.0 0
M  V30 24 O 3.8971 6.0 0.0 0
M  V30 25 C 2.598 -5.2499 0.0 0
M  V30 26 C 2.598 -6.7499 0.0 0
M  V30 27 C 1.299 -4.4999 0.0 0
M  V30 28 C 1.299 -7.4999 0.0 0
M  V30 29 C 0.0 -5.2499 0.0 0
M  V30 30 C 0.0 -6.7499 0.0 0
M  V30 END ATOM
M  V30 BEGIN BOND
M  V30 1 2 1 2
M  V30 2 1 2 3
M  V30 3 1 2 4
M  V30 4 1 3 5
M  V30 5 1 4 6
M  V30 6 1 4 7 CFG=3
M  V30 7 1 5 8
M  V30 8 1 6 9
M  V30 9 1 9 10 CFG=1
M  V30 10 1 9 11
M  V30 11 1 10 12
M  V30 12 1 11 13
M  V30 13 2 12 14
M  V30 14 1 12 15
M  V30 15 2 13 16
M  V30 16 1 13 17
M  V30 17 1 15 18
M  V30 18 1 16 19
M  V30 19 2 17 20
M  V30 20 1 18 21
M  V30 21 2 19 22
M  V30 22 2 21 23
M  V30 23 1 21 24
M  V30 24 1 22 25
M  V30 25 2 25 26
M  V30 26 1 25 27
M  V30 27 1 26 28
M  V30 28 2 27 29
M  V30 29 2 28 30
M  V30 30 1 20 22
M  V30 31 1 29 30
M  V30 END BOND
M  V30 BEGIN COLLECTION
M  V30 MDLV30/STERAC1 ATOMS=(2 4 9)
M  V30 END COLLECTION
M  V30 END CTAB
M  END
>  <Drug Name>
Sacubitril

>  <Carbon Count>
24

>  <SMILES String>
O=C([C@@](C)([H])C[C@](CC(C=C1)=CC=C1C2=CC=CC=C2)([H])NC(CCC(O)=O)=O)OCC

$$$$
Adapalene
Actelion Java MolfileCreator 2.0

  0  0  0  0  0  0              0 V3000
M  V30 BEGIN CTAB
M  V30 COUNTS 31 36 0 0 0
M  V30 BEGIN ATOM
M  V30 1 O 8.29 2.6525 0.0 0
M  V30 2 C 7.3439 2.9766 0.0 0
M  V30 3 O 7.1516 3.9579 0.0 0
M  V30 4 C 6.5902 2.3194 0.0 0
M  V30 5 C 5.6442 2.6435 0.0 0
M  V30 6 C 6.7826 1.338 0.0 0
M  V30 7 C 4.8905 1.9862 0.0 0
M  V30 8 C 6.0289 0.6808 0.0 0
M  V30 9 C 5.0829 1.0049 0.0 0
M  V30 10 C 3.9445 2.3103 0.0 0
M  V30 11 C 4.3292 0.3477 0.0 0
M  V30 12 C 3.1908 1.6531 0.0 0
M  V30 13 C 3.3832 0.6718 0.0 0
M  V30 14 C 2.6295 0.0145 0.0 0
M  V30 15 C 1.6834 0.3386 0.0 0
M  V30 16 C 2.8218 -0.9667 0.0 0
M  V30 17 C 0.9297 -0.3185 0.0 0
M  V30 18 C 2.0681 -1.6239 0.0 0
M  V30 19 C 1.1221 -1.2998 0.0 0
M  V30 20 C 0.0 0.0 0.0 0
M  V30 21 O 0.3684 -1.9571 0.0 0
M  V30 22 C 0.0172 1.0847 0.0 0
M  V30 23 C -0.7406 -0.2764 0.0 0
M  V30 24 C -0.5768 -0.749 0.0 0
M  V30 25 C 0.5607 -2.9384 0.0 0
M  V30 26 C -0.9986 1.4291 0.0 0
M  V30 27 C -1.9199 0.0655 0.0 0
M  V30 28 C -1.5588 -0.4611 0.0 0
M  V30 29 C -1.8677 1.1055 0.0 0
M  V30 30 C -1.461 0.7879 0.0 0
M  V30 31 C -2.4708 -0.7059 0.0 0
M  V30 END ATOM
M  V30 BEGIN BOND
M  V30 1 2 1 2
M  V30 2 1 2 3
M  V30 3 1 2 4
M  V30 4 2 4 5
M  V30 5 1 4 6
M  V30 6 1 5 7
M  V30 7 2 6 8
M  V30 8 1 7 9
M  V30 9 2 7 10
M  V30 10 2 9 11
M  V30 11 1 10 12
M  V30 12 1 11 13
M  V30 13 1 13 14
M  V30 14 2 14 15
M  V30 15 1 14 16
M  V30 16 1 15 17
M  V30 17 2 16 18
M  V30 18 2 17 19
M  V30 19 1 17 20
M  V30 20 1 19 21
M  V30 21 1 20 22
M  V30 22 1 20 23
M  V30 23 1 20 24
M  V30 24 1 21 25
M  V30 25 1 22 26
M  V30 26 1 23 27
M  V30 27 1 24 28
M  V30 28 1 26 29
M  V30 29 1 26 30
M  V30 30 1 27 31
M  V30 31 1 8 9
M  V30 32 2 12 13
M  V30 33 1 18 19
M  V30 34 1 27 29
M  V30 35 1 28 30
M  V30 36 1 28 31
M  V30 END BOND
M  V30 END CTAB
M  END
>  <Drug Name>
Adapalene

>  <Carbon Count>
28

>  <SMILES String>
COC1=CC=C(C2=CC(C=CC(C(O)=O)=C3)=C3C=C2)C=C1C4(C[C@H]5C6)C[C@@H](C5)C[C@@H]6C4

$$$$
Canagliflozin
Actelion Java MolfileCreator 2.0

  0  0  0  0  0  0              0 V3000
M  V30 BEGIN CTAB
M  V30 COUNTS 31 34 0 0 0
M  V30 BEGIN ATOM
M  V30 1 S 1.8365 -1.4945 0.0 0
M  V30 2 C 2.8147 -1.7024 0.0 0
M  V30 3 C 1.732 -0.5 0.0 0
M  V30 4 C 3.2214 -2.6159 0.0 0
M  V30 5 C 3.3147 -0.8364 0.0 0
M  V30 6 C 2.6455 -0.0932 0.0 0
M  V30 7 C 0.866 0.0 0.0 0
M  V30 8 C 2.6336 -3.4249 0.0 0
M  V30 9 C 4.2159 -2.7205 0.0 0
M  V30 10 C 0.0 -0.5 0.0 0
M  V30 11 C 3.0404 -4.3385 0.0 0
M  V30 12 C 4.6227 -3.634 0.0 0
M  V30 13 C -0.866 0.0 0.0 0
M  V30 14 C 0.0 -1.4999 0.0 0
M  V30 15 C 4.0349 -4.443 0.0 0
M  V30 16 C -1.732 -0.4999 0.0 0
M  V30 17 C -0.866 1.0 0.0 0
M  V30 18 C -0.866 -1.9999 0.0 0
M  V30 19 F 4.4416 -5.3566 0.0 0
M  V30 20 C -1.732 -1.4999 0.0 0
M  V30 21 C -0.866 -2.9999 0.0 0 CFG=2
M  V30 22 O -1.732 -3.4999 0.0 0
M  V30 23 C 0.0 -3.4999 0.0 0 CFG=2
M  V30 24 C -1.732 -4.4999 0.0 0 CFG=1
M  V30 25 O 0.866 -3.0 0.0 0
M  V30 26 C 0.0 -4.5 0.0 0 CFG=2
M  V30 27 C -0.866 -4.9999 0.0 0 CFG=2
M  V30 28 C -2.598 -4.9999 0.0 0
M  V30 29 O 0.866 -5.0 0.0 0
M  V30 30 O -0.866 -5.9999 0.0 0
M  V30 31 O -2.598 -5.9999 0.0 0
M  V30 END ATOM
M  V30 BEGIN BOND
M  V30 1 1 1 2
M  V30 2 1 1 3
M  V30 3 1 2 4
M  V30 4 2 2 5
M  V30 5 2 3 6
M  V30 6 1 3 7
M  V30 7 2 4 8
M  V30 8 1 4 9
M  V30 9 1 7 10
M  V30 10 1 8 11
M  V30 11 2 9 12
M  V30 12 2 10 13
M  V30 13 1 10 14
M  V30 14 2 11 15
M  V30 15 1 13 16
M  V30 16 1 13 17
M  V30 17 2 14 18
M  V30 18 1 15 19
M  V30 19 2 16 20
M  V30 20 1 21 18 CFG=1
M  V30 21 1 21 22
M  V30 22 1 21 23
M  V30 23 1 22 24
M  V30 24 1 23 25 CFG=3
M  V30 25 1 23 26
M  V30 26 1 24 27
M  V30 27 1 24 28 CFG=1
M  V30 28 1 26 29 CFG=1
M  V30 29 1 27 30 CFG=3
M  V30 30 1 28 31
M  V30 31 1 5 6
M  V30 32 1 12 15
M  V30 33 1 18 20
M  V30 34 1 26 27
M  V30 END BOND
M  V30 BEGIN COLLECTION
M  V30 MDLV30/STEABS ATOMS=(5 21 23 24 26 27)
M  V30 END COLLECTION
M  V30 END CTAB
M  END
>  <Drug Name>
Canagliflozin

>  <Carbon Count>
24

>  <SMILES String>
[H][C@@]1(C2=CC=C(C(CC3=CC=C(C4=CC=C(C=C4)F)S3)=C2)C)O[C@@H]([C@H]([C@@H]([C@H]1O)O)O)CO

$$$$
Empagliflozin
Actelion Java MolfileCreator 2.0

  0  0  0  0  0  0              0 V3000
M  V30 BEGIN CTAB
M  V30 COUNTS 31 34 0 0 0
M  V30 BEGIN ATOM
M  V30 1 Cl 2.598 1.0 0.0 0
M  V30 2 C 2.598 0.0 0.0 0
M  V30 3 C 1.732 -0.5 0.0 0
M  V30 4 C 3.4641 -0.4999 0.0 0
M  V30 5 C 1.732 -1.5 0.0 0
M  V30 6 C 0.866 0.0 0.0 0
M  V30 7 C 3.4641 -1.4999 0.0 0
M  V30 8 C 2.598 -1.9999 0.0 0
M  V30 9 C 0.0 -0.5 0.0 0
M  V30 10 C 2.598 -2.9999 0.0 0 CFG=2
M  V30 11 C -0.866 0.0 0.0 0
M  V30 12 C 0.0 -1.4999 0.0 0
M  V30 13 O 1.732 -3.5 0.0 0
M  V30 14 C 3.4641 -3.4999 0.0 0 CFG=2
M  V30 15 C -1.732 -0.4999 0.0 0
M  V30 16 C -0.866 -1.9999 0.0 0
M  V30 17 C 1.732 -4.5 0.0 0 CFG=1
M  V30 18 O 4.3301 -2.9999 0.0 0
M  V30 19 C 3.4641 -4.4999 0.0 0 CFG=2
M  V30 20 C -1.732 -1.4999 0.0 0
M  V30 21 C 2.598 -4.9999 0.0 0 CFG=2
M  V30 22 C 0.866 -5.0 0.0 0
M  V30 23 O 4.3301 -4.9999 0.0 0
M  V30 24 O -2.598 -1.9999 0.0 0
M  V30 25 O 2.598 -5.9999 0.0 0
M  V30 26 O 0.866 -6.0 0.0 0
M  V30 27 C -2.598 -2.9999 0.0 0 CFG=2
M  V30 28 C -3.407 -3.5877 0.0 0
M  V30 29 C -1.789 -3.5877 0.0 0
M  V30 30 O -3.098 -4.5388 0.0 0
M  V30 31 C -2.098 -4.5388 0.0 0
M  V30 END ATOM
M  V30 BEGIN BOND
M  V30 1 1 1 2
M  V30 2 2 2 3
M  V30 3 1 2 4
M  V30 4 1 3 5
M  V30 5 1 3 6
M  V30 6 2 4 7
M  V30 7 2 5 8
M  V30 8 1 6 9
M  V30 9 1 10 8 CFG=1
M  V30 10 2 9 11
M  V30 11 1 9 12
M  V30 12 1 10 13
M  V30 13 1 10 14
M  V30 14 1 11 15
M  V30 15 2 12 16
M  V30 16 1 13 17
M  V30 17 1 14 18 CFG=3
M  V30 18 1 14 19
M  V30 19 2 15 20
M  V30 20 1 17 21
M  V30 21 1 17 22 CFG=1
M  V30 22 1 19 23 CFG=1
M  V30 23 1 20 24
M  V30 24 1 21 25 CFG=3
M  V30 25 1 22 26
M  V30 26 1 27 24 CFG=1
M  V30 27 1 27 28
M  V30 28 1 27 29
M  V30 29 1 28 30
M  V30 30 1 29 31
M  V30 31 1 7 8
M  V30 32 1 16 20
M  V30 33 1 19 21
M  V30 34 1 30 31
M  V30 END BOND
M  V30 BEGIN COLLECTION
M  V30 MDLV30/STEABS ATOMS=(6 10 14 17 19 21 27)
M  V30 END COLLECTION
M  V30 END CTAB
M  END
>  <Drug Name>
Empagliflozin

>  <Carbon Count>
23

>  <SMILES String>
ClC1=CC=C(C=C1CC2=CC=C(C=C2)O[C@@H]3COCC3)[C@H]4[C@@H]([C@H]([C@@H]([C@H](O4)CO)O)O)O

$$$$
Trandolapril
Actelion Java MolfileCreator 2.0

  0  0  0  0  0  0              0 V3000
M  V30 BEGIN CTAB
M  V30 COUNTS 31 33 0 0 0
M  V30 BEGIN ATOM
M  V30 1 O 9.0007 1.1939 0.0 0
M  V30 2 C 8.0496 0.8848 0.0 0
M  V30 3 O 7.3065 1.554 0.0 0
M  V30 4 C 7.8417 -0.0932 0.0 0 CFG=1
M  V30 5 N 6.9282 -0.5 0.0 0
M  V30 6 C 8.5108 -0.8364 0.0 0
M  V30 7 C 6.0621 0.0 0.0 0
M  V30 8 C 7.0327 -1.4945 0.0 0 CFG=2
M  V30 9 C 8.0108 -1.7024 0.0 0 CFG=2
M  V30 10 O 6.0621 0.9999 0.0 0
M  V30 11 C 5.1961 -0.5 0.0 0 CFG=1
M  V30 12 C 6.3636 -2.2376 0.0 0
M  V30 13 C 8.3198 -2.6534 0.0 0
M  V30 14 N 4.3301 0.0 0.0 0
M  V30 15 C 5.1961 -1.4999 0.0 0
M  V30 16 C 6.6726 -3.1887 0.0 0
M  V30 17 C 7.6507 -3.3966 0.0 0
M  V30 18 C 3.4641 -0.5 0.0 0 CFG=2
M  V30 19 C 2.598 0.0 0.0 0
M  V30 20 C 3.4641 -1.5 0.0 0
M  V30 21 O 2.598 1.0 0.0 0
M  V30 22 O 1.732 -0.5 0.0 0
M  V30 23 C 2.598 -2.0 0.0 0
M  V30 24 C 0.866 0.0 0.0 0
M  V30 25 C 2.598 -3.0 0.0 0
M  V30 26 C 0.0 -0.5 0.0 0
M  V30 27 C 1.732 -3.4999 0.0 0
M  V30 28 C 3.4641 -3.5 0.0 0
M  V30 29 C 1.732 -4.5 0.0 0
M  V30 30 C 3.4641 -4.5 0.0 0
M  V30 31 C 2.598 -5.0 0.0 0
M  V30 END ATOM
M  V30 BEGIN BOND
M  V30 1 2 1 2
M  V30 2 1 2 3
M  V30 3 1 4 2 CFG=3
M  V30 4 1 4 5
M  V30 5 1 4 6
M  V30 6 1 5 7
M  V30 7 1 8 5 CFG=3
M  V30 8 1 6 9
M  V30 9 2 7 10
M  V30 10 1 7 11
M  V30 11 1 8 12
M  V30 12 1 9 13 CFG=1
M  V30 13 1 11 14
M  V30 14 1 11 15 CFG=3
M  V30 15 1 12 16
M  V30 16 1 13 17
M  V30 17 1 18 14 CFG=1
M  V30 18 1 18 19
M  V30 19 1 18 20
M  V30 20 2 19 21
M  V30 21 1 19 22
M  V30 22 1 20 23
M  V30 23 1 22 24
M  V30 24 1 23 25
M  V30 25 1 24 26
M  V30 26 2 25 27
M  V30 27 1 25 28
M  V30 28 1 27 29
M  V30 29 2 28 30
M  V30 30 2 29 31
M  V30 31 1 8 9
M  V30 32 1 16 17
M  V30 33 1 30 31
M  V30 END BOND
M  V30 BEGIN COLLECTION
M  V30 MDLV30/STEABS ATOMS=(5 4 8 9 11 18)
M  V30 END COLLECTION
M  V30 END CTAB
M  END
>  <Drug Name>
Trandolapril

>  <Carbon Count>
24

>  <SMILES String>
O=C(O)[C@@H](N(C([C@H](C)N[C@H](C(OCC)=O)CCC1=CC=CC=C1)=O)[C@]2(CCCC3)[H])C[C@]23[H]

$$$$
Benazepril
Actelion Java MolfileCreator 2.0

  0  0  0  0  0  0              0 V3000
M  V30 BEGIN CTAB
M  V30 COUNTS 31 33 0 0 0
M  V30 BEGIN ATOM
M  V30 1 O 5.4055 -5.0438 0.0 0
M  V30 2 C 4.0092 -4.4958 0.0 0
M  V30 3 N 2.9096 -5.516 0.0 0
M  V30 4 C 3.8971 -3.0 0.0 0 CFG=1
M  V30 5 C 1.4263 -5.2925 0.0 0
M  V30 6 C 3.3517 -6.9494 0.0 0
M  V30 7 N 5.1961 -2.25 0.0 0
M  V30 8 C 2.6577 -2.155 0.0 0
M  V30 9 C 0.6763 -3.9934 0.0 0
M  V30 10 C 0.6763 -6.5915 0.0 0
M  V30 11 C 4.8141 -7.2832 0.0 0
M  V30 12 C 5.1961 -0.75 0.0 0 CFG=2
M  V30 13 C 1.2243 -2.5971 0.0 0
M  V30 14 C -0.8236 -3.9934 0.0 0
M  V30 15 C -0.8236 -6.5915 0.0 0
M  V30 16 O 5.8344 -6.1836 0.0 0
M  V30 17 O 5.2562 -8.7165 0.0 0
M  V30 18 C 3.8971 0.0 0.0 0
M  V30 19 C 6.4951 0.0 0.0 0
M  V30 20 C -1.5736 -5.2925 0.0 0
M  V30 21 O 3.8971 1.5 0.0 0
M  V30 22 O 2.598 -0.75 0.0 0
M  V30 23 C 7.7942 -0.75 0.0 0
M  V30 24 C 1.299 0.0 0.0 0
M  V30 25 C 9.0932 0.0 0.0 0
M  V30 26 C 0.0 -0.75 0.0 0
M  V30 27 C 10.3923 -0.75 0.0 0
M  V30 28 C 9.0932 1.4999 0.0 0
M  V30 29 C 11.6913 0.0 0.0 0
M  V30 30 C 10.3923 2.2499 0.0 0
M  V30 31 C 11.6913 1.4999 0.0 0
M  V30 END ATOM
M  V30 BEGIN BOND
M  V30 1 2 1 2
M  V30 2 1 2 3
M  V30 3 1 2 4
M  V30 4 1 3 5
M  V30 5 1 3 6
M  V30 6 1 4 7 CFG=3
M  V30 7 1 4 8
M  V30 8 2 5 9
M  V30 9 1 5 10
M  V30 10 1 6 11
M  V30 11 1 12 7 CFG=3
M  V30 12 1 8 13
M  V30 13 1 9 14
M  V30 14 2 10 15
M  V30 15 2 11 16
M  V30 16 1 11 17
M  V30 17 1 12 18
M  V30 18 1 12 19
M  V30 19 2 14 20
M  V30 20 2 18 21
M  V30 21 1 18 22
M  V30 22 1 19 23
M  V30 23 1 22 24
M  V30 24 1 23 25
M  V30 25 1 24 26
M  V30 26 2 25 27
M  V30 27 1 25 28
M  V30 28 1 27 29
M  V30 29 2 28 30
M  V30 30 2 29 31
M  V30 31 1 9 13
M  V30 32 1 15 20
M  V30 33 1 30 31
M  V30 END BOND
M  V30 BEGIN COLLECTION
M  V30 MDLV30/STEABS ATOMS=(2 4 12)
M  V30 END COLLECTION
M  V30 END CTAB
M  END
>  <Drug Name>
Benazepril

>  <Carbon Count>
24

>  <SMILES String>
O=C(CN1C([C@H](CCC2=C1C=CC=C2)N[C@@H](CCC3=CC=CC=C3)C(OCC)=O)=O)O

$$$$
Elvitegravir
Actelion Java MolfileCreator 2.0

  0  0  0  0  0  0              0 V3000
M  V30 BEGIN CTAB
M  V30 COUNTS 31 33 0 0 0
M  V30 BEGIN ATOM
M  V30 1 Cl 6.9282 -6.4999 0.0 0
M  V30 2 C 6.0621 -5.9999 0.0 0
M  V30 3 C 6.0621 -4.9999 0.0 0
M  V30 4 C 5.1961 -6.4999 0.0 0
M  V30 5 F 6.9282 -4.4999 0.0 0
M  V30 6 C 5.1961 -4.4999 0.0 0
M  V30 7 C 4.3301 -5.9999 0.0 0
M  V30 8 C 4.3301 -4.9999 0.0 0
M  V30 9 C 5.1961 -3.4999 0.0 0
M  V30 10 C 4.3301 -2.9999 0.0 0
M  V30 11 C 4.3301 -1.9999 0.0 0
M  V30 12 C 3.4641 -3.4999 0.0 0
M  V30 13 O 5.1961 -1.4999 0.0 0
M  V30 14 C 3.4641 -1.4999 0.0 0
M  V30 15 C 2.598 -2.9999 0.0 0
M  V30 16 C 5.1961 -0.4999 0.0 0
M  V30 17 C 2.598 -1.9999 0.0 0
M  V30 18 C 1.732 -3.4999 0.0 0
M  V30 19 N 1.732 -1.5 0.0 0
M  V30 20 O 1.732 -4.4999 0.0 0
M  V30 21 C 0.866 -2.9999 0.0 0
M  V30 22 C 0.866 -1.9999 0.0 0
M  V30 23 C 1.732 -0.5 0.0 0 CFG=1
M  V30 24 C 0.0 -3.5 0.0 0
M  V30 25 C 2.598 0.0 0.0 0
M  V30 26 C 0.866 0.0 0.0 0
M  V30 27 O -0.866 -3.0 0.0 0
M  V30 28 O 0.0 -4.4999 0.0 0
M  V30 29 C 3.4641 -0.5 0.0 0
M  V30 30 C 2.598 1.0 0.0 0
M  V30 31 O 0.0 -0.5 0.0 0
M  V30 END ATOM
M  V30 BEGIN BOND
M  V30 1 1 1 2
M  V30 2 2 2 3
M  V30 3 1 2 4
M  V30 4 1 3 5
M  V30 5 1 3 6
M  V30 6 2 4 7
M  V30 7 2 6 8
M  V30 8 1 6 9
M  V30 9 1 9 10
M  V30 10 2 10 11
M  V30 11 1 10 12
M  V30 12 1 11 13
M  V30 13 1 11 14
M  V30 14 2 12 15
M  V30 15 1 13 16
M  V30 16 2 14 17
M  V30 17 1 15 18
M  V30 18 1 17 19
M  V30 19 2 18 20
M  V30 20 1 18 21
M  V30 21 1 19 22
M  V30 22 1 23 19 CFG=3
M  V30 23 1 21 24
M  V30 24 1 23 25
M  V30 25 1 23 26
M  V30 26 2 24 27
M  V30 27 1 24 28
M  V30 28 1 25 29
M  V30 29 1 25 30
M  V30 30 1 26 31
M  V30 31 1 7 8
M  V30 32 1 15 17
M  V30 33 2 21 22
M  V30 END BOND
M  V30 BEGIN COLLECTION
M  V30 MDLV30/STEABS ATOMS=(1 23)
M  V30 END COLLECTION
M  V30 END CTAB
M  END
>  <Drug Name>
Elvitegravir

>  <Carbon Count>
23

>  <SMILES String>
Clc1cccc(c1F)Cc3c(OC)cc2c(C(=O)\C(=C/N2[C@H](CO)C(C)C)C(=O)O)c3

$$$$
Glipizide
Actelion Java MolfileCreator 2.0

  0  0  0  0  0  0              0 V3000
M  V30 BEGIN CTAB
M  V30 COUNTS 31 33 0 0 0
M  V30 BEGIN ATOM
M  V30 1 S 5.1961 -0.75 0.0 0
M  V30 2 O 4.4461 -2.049 0.0 0
M  V30 3 O 5.9461 -2.049 0.0 0
M  V30 4 N 3.8971 0.0 0.0 0
M  V30 5 C 6.4951 0.0 0.0 0
M  V30 6 C 2.598 -0.75 0.0 0
M  V30 7 C 7.7942 -0.75 0.0 0
M  V30 8 C 6.4951 1.5 0.0 0
M  V30 9 O 2.598 -2.25 0.0 0
M  V30 10 N 1.299 0.0 0.0 0
M  V30 11 C 9.0932 0.0 0.0 0
M  V30 12 C 7.7942 2.25 0.0 0
M  V30 13 C 0.0 -0.75 0.0 0
M  V30 14 C 9.0932 1.5 0.0 0
M  V30 15 C -1.299 0.0 0.0 0
M  V30 16 C 0.0 -2.25 0.0 0
M  V30 17 C 10.3923 2.25 0.0 0
M  V30 18 C -2.598 -0.75 0.0 0
M  V30 19 C -1.299 -3.0 0.0 0
M  V30 20 C 11.6913 1.5 0.0 0
M  V30 21 C -2.598 -2.25 0.0 0
M  V30 22 N 12.9903 2.25 0.0 0
M  V30 23 C 14.2894 1.5 0.0 0
M  V30 24 O 14.2894 0.0 0.0 0
M  V30 25 C 15.5884 2.25 0.0 0
M  V30 26 N 16.8875 1.5 0.0 0
M  V30 27 C 15.5884 3.75 0.0 0
M  V30 28 C 18.1865 2.25 0.0 0
M  V30 29 N 16.8875 4.5 0.0 0
M  V30 30 C 18.1865 3.75 0.0 0
M  V30 31 C 19.4855 4.5 0.0 0
M  V30 END ATOM
M  V30 BEGIN BOND
M  V30 1 2 1 2
M  V30 2 2 1 3
M  V30 3 1 1 4
M  V30 4 1 1 5
M  V30 5 1 4 6
M  V30 6 2 5 7
M  V30 7 1 5 8
M  V30 8 2 6 9
M  V30 9 1 6 10
M  V30 10 1 7 11
M  V30 11 2 8 12
M  V30 12 1 10 13
M  V30 13 2 11 14
M  V30 14 1 13 15
M  V30 15 1 13 16
M  V30 16 1 14 17
M  V30 17 1 15 18
M  V30 18 1 16 19
M  V30 19 1 17 20
M  V30 20 1 18 21
M  V30 21 1 20 22
M  V30 22 1 22 23
M  V30 23 2 23 24
M  V30 24 1 23 25
M  V30 25 2 25 26
M  V30 26 1 25 27
M  V30 27 1 26 28
M  V30 28 2 27 29
M  V30 29 2 28 30
M  V30 30 1 30 31
M  V30 31 1 12 14
M  V30 32 1 19 21
M  V30 33 1 29 30
M  V30 END BOND
M  V30 END CTAB
M  END
>  <Drug Name>
Glipizide

>  <Carbon Count>
21

>  <SMILES String>
O=C(NS(=O)(C1=CC=C(CCNC(C2=NC=C(C)N=C2)=O)C=C1)=O)NC3CCCCC3

$$$$
Budesonide
Actelion Java MolfileCreator 2.0

  0  0  0  0  0  0              0 V3000
M  V30 BEGIN CTAB
M  V30 COUNTS 31 35 0 0 0
M  V30 BEGIN ATOM
M  V30 1 O -2.5148 8.3084 0.0 0
M  V30 2 C -1.6306 7.0914 0.0 0
M  V30 3 C -0.1345 7.2487 0.0 0
M  V30 4 C -2.2424 5.7172 0.0 0
M  V30 5 C 0.7495 6.0317 0.0 0
M  V30 6 C -1.3582 4.5002 0.0 0
M  V30 7 C 0.1377 4.6574 0.0 0 CFG=2
M  V30 8 C 2.2456 6.1889 0.0 0
M  V30 9 C 1.0219 3.4405 0.0 0 CFG=1
M  V30 10 C -0.474 3.2832 0.0 0
M  V30 11 C 3.1298 4.9719 0.0 0
M  V30 12 C 0.4101 2.0662 0.0 0 CFG=1
M  V30 13 C 2.5179 3.5977 0.0 0 CFG=1
M  V30 14 O -1.0859 1.909 0.0 0
M  V30 15 C 1.2942 0.8493 0.0 0
M  V30 16 C 3.4021 2.3807 0.0 0 CFG=1
M  V30 17 C 2.7903 1.0065 0.0 0 CFG=1
M  V30 18 C 4.8981 2.2235 0.0 0
M  V30 19 C 3.9082 0.0 0.0 0 CFG=1
M  V30 20 C 2.3067 -0.2549 0.0 0
M  V30 21 C 5.2109 0.7521 0.0 0 CFG=2
M  V30 22 O 4.2209 -1.4713 0.0 0
M  V30 23 C 2.6498 -0.8259 0.0 0
M  V30 24 O 6.3288 -0.2544 0.0 0
M  V30 25 C 5.7169 -1.6286 0.0 0
M  V30 26 O 2.6054 -2.2564 0.0 0
M  V30 27 C 1.3027 0.0 0.0 0
M  V30 28 C 6.4691 -2.9313 0.0 0
M  V30 29 O 0.0 -0.7521 0.0 0
M  V30 30 C 5.7169 -4.2341 0.0 0
M  V30 31 C 6.4691 -5.5368 0.0 0
M  V30 END ATOM
M  V30 BEGIN BOND
M  V30 1 2 1 2
M  V30 2 1 2 3
M  V30 3 1 2 4
M  V30 4 2 3 5
M  V30 5 2 4 6
M  V30 6 1 5 7
M  V30 7 1 5 8
M  V30 8 1 7 9
M  V30 9 1 7 10 CFG=3
M  V30 10 1 8 11
M  V30 11 1 9 12 CFG=3
M  V30 12 1 9 13
M  V30 13 1 12 14 CFG=3
M  V30 14 1 12 15
M  V30 15 1 13 16
M  V30 16 1 15 17
M  V30 17 1 16 18 CFG=3
M  V30 18 1 17 19
M  V30 19 1 17 20 CFG=3
M  V30 20 1 18 21
M  V30 21 1 19 22
M  V30 22 1 19 23 CFG=3
M  V30 23 1 21 24 CFG=1
M  V30 24 1 22 25
M  V30 25 2 23 26
M  V30 26 1 23 27
M  V30 27 1 25 28
M  V30 28 1 27 29
M  V30 29 1 28 30
M  V30 30 1 30 31
M  V30 31 1 6 7
M  V30 32 1 13 11 CFG=1
M  V30 33 1 16 17
M  V30 34 1 19 21
M  V30 35 1 24 25
M  V30 END BOND
M  V30 BEGIN COLLECTION
M  V30 MDLV30/STEABS ATOMS=(8 7 9 12 13 16 17 19 21)
M  V30 END COLLECTION
M  V30 END CTAB
M  END
>  <Drug Name>
Budesonide

>  <Carbon Count>
25

>  <SMILES String>
CCCC1O[C@@H]2C[C@@]3([H])[C@]4([H])CCC5=CC(C=C[C@]5(C)[C@@]4([H])[C@@H](O)C[C@]3(C)[C@]2(C(CO)=O)O1)=O

$$$$
Triamcinolone Acetonide
Actelion Java MolfileCreator 2.0

  0  0  0  0  0  0              0 V3000
M  V30 BEGIN CTAB
M  V30 COUNTS 31 35 0 0 0
M  V30 BEGIN ATOM
M  V30 1 F -0.5058 2.2459 0.0 0
M  V30 2 C 0.6793 2.2871 0.0 0 CFG=2
M  V30 3 C 0.0915 3.0961 0.0 0 CFG=2
M  V30 4 C 0.2726 1.3736 0.0 0 CFG=1
M  V30 5 C 1.6738 2.3916 0.0 0 CFG=2
M  V30 6 C 0.4983 4.0097 0.0 0
M  V30 7 C -0.9029 2.9916 0.0 0
M  V30 8 C -0.2943 1.9334 0.0 0
M  V30 9 O -0.7218 1.269 0.0 0
M  V30 10 C 0.8604 0.5646 0.0 0
M  V30 11 C 2.2616 1.5826 0.0 0 CFG=1
M  V30 12 C 2.0806 3.3052 0.0 0
M  V30 13 C -0.0894 4.8187 0.0 0
M  V30 14 C 1.4928 4.1142 0.0 0
M  V30 15 C -1.4907 3.8006 0.0 0
M  V30 16 C 1.8549 0.6691 0.0 0 CFG=1
M  V30 17 C 3.2561 1.4781 0.0 0
M  V30 18 C -1.0839 4.7142 0.0 0
M  V30 19 C 2.598 0.0 0.0 0 CFG=1
M  V30 20 C 1.5334 -0.1695 0.0 0
M  V30 21 C 3.4641 0.5 0.0 0 CFG=2
M  V30 22 O -1.6717 5.5232 0.0 0
M  V30 23 O 2.8059 -0.9781 0.0 0
M  V30 24 C 1.7615 -0.549 0.0 0
M  V30 25 O 4.2072 -0.1691 0.0 0
M  V30 26 C 3.8005 -1.0826 0.0 0
M  V30 27 O 1.732 -1.5 0.0 0
M  V30 28 C 0.866 0.0 0.0 0
M  V30 29 C 3.8004 -2.0826 0.0 0
M  V30 30 C 4.6665 -1.5826 0.0 0
M  V30 31 O 0.0 -0.5 0.0 0
M  V30 END ATOM
M  V30 BEGIN BOND
M  V30 1 1 2 1 CFG=1
M  V30 2 1 2 3
M  V30 3 1 2 4
M  V30 4 1 2 5
M  V30 5 1 3 6
M  V30 6 1 3 7
M  V30 7 1 3 8 CFG=3
M  V30 8 1 4 9 CFG=3
M  V30 9 1 4 10
M  V30 10 1 5 11
M  V30 11 1 5 12 CFG=1
M  V30 12 2 6 13
M  V30 13 1 6 14
M  V30 14 2 7 15
M  V30 15 1 10 16
M  V30 16 1 11 17 CFG=3
M  V30 17 1 13 18
M  V30 18 1 16 19
M  V30 19 1 16 20 CFG=3
M  V30 20 1 17 21
M  V30 21 2 18 22
M  V30 22 1 19 23
M  V30 23 1 19 24 CFG=3
M  V30 24 1 21 25 CFG=1
M  V30 25 1 23 26
M  V30 26 2 24 27
M  V30 27 1 24 28
M  V30 28 1 26 29
M  V30 29 1 26 30
M  V30 30 1 28 31
M  V30 31 1 11 16
M  V30 32 1 12 14
M  V30 33 1 15 18
M  V30 34 1 19 21
M  V30 35 1 25 26
M  V30 END BOND
M  V30 BEGIN COLLECTION
M  V30 MDLV30/STERAC1 ATOMS=(8 2 3 4 5 11 16 19 21)
M  V30 END COLLECTION
M  V30 END CTAB
M  END
>  <Drug Name>
Triamcinolone Acetonide

>  <Carbon Count>
24

>  <SMILES String>
O=C1C=C[C@@]2(C)C(CC[C@]3([H])[C@]2(F)[C@@H](O)C[C@@]4(C)[C@@]3([H])C[C@@H](OC(C)(C)O5)[C@]45C(CO)=O)=C1

$$$$
Flurandrenolide
Actelion Java MolfileCreator 2.0

  0  0  0  0  0  0              0 V3000
M  V30 BEGIN CTAB
M  V30 COUNTS 31 35 0 0 0
M  V30 BEGIN ATOM
M  V30 1 F 2.8574 7.5631 0.0 0
M  V30 2 C 2.2456 6.1889 0.0 0 CFG=2
M  V30 3 C 0.7495 6.0317 0.0 0
M  V30 4 C 3.1298 4.9719 0.0 0
M  V30 5 C -0.1345 7.2487 0.0 0
M  V30 6 C 0.1377 4.6575 0.0 0 CFG=1
M  V30 7 C 2.5179 3.5977 0.0 0 CFG=2
M  V30 8 C -1.6306 7.0914 0.0 0
M  V30 9 C 1.0219 3.4405 0.0 0 CFG=2
M  V30 10 C -1.3582 4.5002 0.0 0
M  V30 11 C -0.474 3.2832 0.0 0
M  V30 12 C 3.4021 2.3807 0.0 0 CFG=1
M  V30 13 O -2.5148 8.3084 0.0 0
M  V30 14 C -2.2424 5.7172 0.0 0
M  V30 15 C 0.4101 2.0662 0.0 0 CFG=1
M  V30 16 C 2.7903 1.0065 0.0 0 CFG=2
M  V30 17 C 4.8982 2.2235 0.0 0
M  V30 18 O -1.0859 1.909 0.0 0
M  V30 19 C 1.2942 0.8493 0.0 0
M  V30 20 C 3.9082 0.0 0.0 0 CFG=1
M  V30 21 C 2.3067 -0.2549 0.0 0
M  V30 22 C 5.2109 0.7521 0.0 0 CFG=2
M  V30 23 O 4.2209 -1.4714 0.0 0
M  V30 24 C 2.6498 -0.8259 0.0 0
M  V30 25 O 6.3288 -0.2544 0.0 0
M  V30 26 C 5.717 -1.6286 0.0 0
M  V30 27 O 2.6054 -2.2564 0.0 0
M  V30 28 C 1.3027 0.0 0.0 0
M  V30 29 C 5.7169 -3.1328 0.0 0
M  V30 30 C 7.0197 -2.3807 0.0 0
M  V30 31 O 0.0 -0.7521 0.0 0
M  V30 END ATOM
M  V30 BEGIN BOND
M  V30 1 1 2 1 CFG=1
M  V30 2 1 2 3
M  V30 3 1 2 4
M  V30 4 2 3 5
M  V30 5 1 3 6
M  V30 6 1 7 4 CFG=1
M  V30 7 1 5 8
M  V30 8 1 6 9
M  V30 9 1 6 10
M  V30 10 1 6 11 CFG=3
M  V30 11 1 7 12
M  V30 12 2 8 13
M  V30 13 1 8 14
M  V30 14 1 9 15 CFG=3
M  V30 15 1 12 16
M  V30 16 1 12 17 CFG=3
M  V30 17 1 15 18 CFG=3
M  V30 18 1 15 19
M  V30 19 1 16 20
M  V30 20 1 16 21 CFG=3
M  V30 21 1 17 22
M  V30 22 1 20 23
M  V30 23 1 20 24 CFG=3
M  V30 24 1 22 25 CFG=1
M  V30 25 1 23 26
M  V30 26 2 24 27
M  V30 27 1 24 28
M  V30 28 1 26 29
M  V30 29 1 26 30
M  V30 30 1 28 31
M  V30 31 1 7 9
M  V30 32 1 10 14
M  V30 33 1 16 19
M  V30 34 1 20 22
M  V30 35 1 25 26
M  V30 END BOND
M  V30 BEGIN COLLECTION
M  V30 MDLV30/STEABS ATOMS=(9 2 6 7 9 12 15 16 20 22)
M  V30 END COLLECTION
M  V30 END CTAB
M  END
>  <Drug Name>
Flurandrenolide

>  <Carbon Count>
24

>  <SMILES String>
O=C1CC[C@@]2(C)C([C@@H](F)C[C@]3([H])[C@]2([H])[C@@H](O)C[C@@]4(C)[C@@]3([H])C[C@@H]5[C@]4(OC(C)(C)O5)C(CO)=O)=C1

$$$$
Topotecan
Actelion Java MolfileCreator 2.0

  0  0  0  0  0  0              0 V3000
M  V30 BEGIN CTAB
M  V30 COUNTS 31 35 0 0 0
M  V30 BEGIN ATOM
M  V30 1 O 8.5704 -7.2078 0.0 0
M  V30 2 C 9.1805 -5.8375 0.0 0
M  V30 3 N 8.2988 -4.624 0.0 0
M  V30 4 C 10.6723 -5.6807 0.0 0
M  V30 5 C 8.9089 -3.2536 0.0 0
M  V30 6 C 6.807 -4.4672 0.0 0
M  V30 7 C 11.2824 -4.3104 0.0 0
M  V30 8 C 11.5539 -6.8942 0.0 0
M  V30 9 C 7.7942 -2.2499 0.0 0
M  V30 10 C 10.4007 -3.0969 0.0 0
M  V30 11 C 6.4951 -2.9999 0.0 0
M  V30 12 C 12.7741 -4.1536 0.0 0 CFG=2
M  V30 13 O 13.0457 -6.7374 0.0 0
M  V30 14 N 7.7942 -0.7499 0.0 0
M  V30 15 C 5.1961 -2.25 0.0 0
M  V30 16 O 11.8925 -2.9401 0.0 0
M  V30 17 C 13.6558 -5.3671 0.0 0
M  V30 18 C 13.3842 -2.7833 0.0 0
M  V30 19 C 6.4951 0.0 0.0 0
M  V30 20 C 5.1961 -0.7499 0.0 0
M  V30 21 O 15.1476 -5.2103 0.0 0
M  V30 22 C 14.876 -2.6265 0.0 0
M  V30 23 C 6.4951 1.5 0.0 0
M  V30 24 C 3.8971 0.0 0.0 0
M  V30 25 C 5.1961 2.25 0.0 0
M  V30 26 C 3.8971 1.5 0.0 0
M  V30 27 C 2.598 -0.75 0.0 0
M  V30 28 O 2.598 2.25 0.0 0
M  V30 29 N 1.299 0.0 0.0 0
M  V30 30 C 1.299 1.5 0.0 0
M  V30 31 C 0.0 -0.75 0.0 0
M  V30 END ATOM
M  V30 BEGIN BOND
M  V30 1 2 1 2
M  V30 2 1 2 3
M  V30 3 1 2 4
M  V30 4 1 3 5
M  V30 5 1 3 6
M  V30 6 2 4 7
M  V30 7 1 4 8
M  V30 8 1 5 9
M  V30 9 2 5 10
M  V30 10 1 6 11
M  V30 11 1 7 12
M  V30 12 1 8 13
M  V30 13 2 9 14
M  V30 14 2 11 15
M  V30 15 1 12 16 CFG=3
M  V30 16 1 12 17
M  V30 17 1 12 18
M  V30 18 1 14 19
M  V30 19 1 15 20
M  V30 20 2 17 21
M  V30 21 1 18 22
M  V30 22 2 19 23
M  V30 23 2 20 24
M  V30 24 1 23 25
M  V30 25 1 24 26
M  V30 26 1 24 27
M  V30 27 1 26 28
M  V30 28 1 27 29
M  V30 29 1 29 30
M  V30 30 1 29 31
M  V30 31 1 7 10
M  V30 32 1 9 11
M  V30 33 1 13 17
M  V30 34 1 19 20
M  V30 35 2 25 26
M  V30 END BOND
M  V30 BEGIN COLLECTION
M  V30 MDLV30/STEABS ATOMS=(1 12)
M  V30 END COLLECTION
M  V30 END CTAB
M  END
>  <Drug Name>
Topotecan

>  <Carbon Count>
23

>  <SMILES String>
OC1=C(CN(C)C)C2=CC(C3)=C(N=C2C=C1)C(N3C4=O)=CC5=C4COC([C@]5(O)CC)=O

$$$$
Bismuth Subcitrate
Actelion Java MolfileCreator 2.0

  0  0  0  0  0  0              0 V3000
M  V30 BEGIN CTAB
M  V30 COUNTS 30 24 0 0 0
M  V30 BEGIN ATOM
M  V30 1 Bi 7.828 -6.1067 0.0 0 CHG=3
M  V30 2 K 4.4564 -2.6209 0.0 0 CHG=1
M  V30 3 K 13.8018 5.1656 0.0 0 CHG=1
M  V30 4 K 16.6758 1.0178 0.0 0 CHG=1
M  V30 5 O 5.5814 5.3275 0.0 0
M  V30 6 C 5.5814 3.8275 0.0 0
M  V30 7 O 4.2824 3.0775 0.0 0
M  V30 8 C 6.8805 3.0775 0.0 0
M  V30 9 O 8.1795 2.3275 0.0 0
M  V30 10 C 8.1795 3.8275 0.0 0
M  V30 11 C 6.8805 1.5775 0.0 0
M  V30 12 C 8.1795 5.3275 0.0 0
M  V30 13 C 5.5814 0.8275 0.0 0
M  V30 14 O 9.4785 6.0775 0.0 0
M  V30 15 O 6.8805 6.0775 0.0 0
M  V30 16 O 4.2824 1.5775 0.0 0
M  V30 17 O 5.5814 -0.6724 0.0 0 CHG=-1
M  V30 18 O 12.6768 -2.7829 0.0 0
M  V30 19 C 12.6768 -1.2829 0.0 0
M  V30 20 O 13.9758 -0.5329 0.0 0
M  V30 21 C 11.3777 -0.5329 0.0 0
M  V30 22 O 10.0787 0.217 0.0 0
M  V30 23 C 10.0787 -1.2829 0.0 0
M  V30 24 C 11.3777 0.967 0.0 0
M  V30 25 C 10.0787 -2.7829 0.0 0
M  V30 26 C 12.6768 1.717 0.0 0
M  V30 27 O 8.7796 -3.5329 0.0 0
M  V30 28 O 11.3777 -3.5329 0.0 0
M  V30 29 O 13.9758 0.967 0.0 0
M  V30 30 O 12.6768 3.217 0.0 0 CHG=-1
M  V30 END ATOM
M  V30 BEGIN BOND
M  V30 1 2 5 6
M  V30 2 1 6 7
M  V30 3 1 6 8
M  V30 4 1 8 9
M  V30 5 1 8 10
M  V30 6 1 8 11
M  V30 7 1 10 12
M  V30 8 1 11 13
M  V30 9 2 12 14
M  V30 10 1 12 15
M  V30 11 2 13 16
M  V30 12 1 13 17
M  V30 13 2 18 19
M  V30 14 1 19 20
M  V30 15 1 19 21
M  V30 16 1 21 22
M  V30 17 1 21 23
M  V30 18 1 21 24
M  V30 19 1 23 25
M  V30 20 1 24 26
M  V30 21 2 25 27
M  V30 22 1 25 28
M  V30 23 2 26 29
M  V30 24 1 26 30
M  V30 END BOND
M  V30 END CTAB
M  END
>  <Drug Name>
Bismuth Subcitrate

>  <Carbon Count>
12

>  <SMILES String>
C(C(=O)[O-])C(CC(=O)[O-])(C(=O)[O-])[O-].C(C(=O)[O-])C(CC(=O)[O-])(C(=O)[O-])[O-].[K+].[K+].[K+].[K+].[K+].[Bi+3]

$$$$
Fluocinolone Acetonide
Actelion Java MolfileCreator 2.0

  0  0  0  0  0  0              0 V3000
M  V30 BEGIN CTAB
M  V30 COUNTS 32 36 0 0 0
M  V30 BEGIN ATOM
M  V30 1 F -0.5058 2.2459 0.0 0
M  V30 2 C 0.6793 2.2871 0.0 0 CFG=2
M  V30 3 C 0.0915 3.0961 0.0 0 CFG=2
M  V30 4 C 0.2726 1.3736 0.0 0 CFG=1
M  V30 5 C 1.6738 2.3916 0.0 0 CFG=2
M  V30 6 C 0.4983 4.0097 0.0 0
M  V30 7 C -0.9029 2.9916 0.0 0
M  V30 8 C -0.2943 1.9334 0.0 0
M  V30 9 O -0.7218 1.269 0.0 0
M  V30 10 C 0.8604 0.5646 0.0 0
M  V30 11 C 2.2616 1.5826 0.0 0 CFG=1
M  V30 12 C 2.0806 3.3052 0.0 0
M  V30 13 C -0.0894 4.8187 0.0 0
M  V30 14 C 1.4928 4.1142 0.0 0 CFG=2
M  V30 15 C -1.4907 3.8006 0.0 0
M  V30 16 C 1.8549 0.6691 0.0 0 CFG=1
M  V30 17 C 3.2561 1.4781 0.0 0
M  V30 18 C -1.0839 4.7142 0.0 0
M  V30 19 F 1.8995 5.0278 0.0 0
M  V30 20 C 2.598 0.0 0.0 0 CFG=1
M  V30 21 C 1.5334 -0.1695 0.0 0
M  V30 22 C 3.4641 0.5 0.0 0 CFG=2
M  V30 23 O -1.6717 5.5232 0.0 0
M  V30 24 O 2.8059 -0.9781 0.0 0
M  V30 25 C 1.7615 -0.549 0.0 0
M  V30 26 O 4.2072 -0.1691 0.0 0
M  V30 27 C 3.8005 -1.0826 0.0 0
M  V30 28 O 1.732 -1.5 0.0 0
M  V30 29 C 0.866 0.0 0.0 0
M  V30 30 C 3.8004 -2.0826 0.0 0
M  V30 31 C 4.6665 -1.5826 0.0 0
M  V30 32 O 0.0 -0.5 0.0 0
M  V30 END ATOM
M  V30 BEGIN BOND
M  V30 1 1 2 1 CFG=1
M  V30 2 1 2 3
M  V30 3 1 2 4
M  V30 4 1 2 5
M  V30 5 1 3 6
M  V30 6 1 3 7
M  V30 7 1 3 8 CFG=3
M  V30 8 1 4 9 CFG=3
M  V30 9 1 4 10
M  V30 10 1 5 11
M  V30 11 1 5 12 CFG=1
M  V30 12 2 6 13
M  V30 13 1 6 14
M  V30 14 2 7 15
M  V30 15 1 10 16
M  V30 16 1 11 17 CFG=3
M  V30 17 1 13 18
M  V30 18 1 14 19 CFG=1
M  V30 19 1 16 20
M  V30 20 1 16 21 CFG=3
M  V30 21 1 17 22
M  V30 22 2 18 23
M  V30 23 1 20 24
M  V30 24 1 20 25 CFG=3
M  V30 25 1 22 26 CFG=1
M  V30 26 1 24 27
M  V30 27 2 25 28
M  V30 28 1 25 29
M  V30 29 1 27 30
M  V30 30 1 27 31
M  V30 31 1 29 32
M  V30 32 1 11 16
M  V30 33 1 12 14
M  V30 34 1 15 18
M  V30 35 1 20 22
M  V30 36 1 26 27
M  V30 END BOND
M  V30 BEGIN COLLECTION
M  V30 MDLV30/STEABS ATOMS=(9 2 3 4 5 11 14 16 20 22)
M  V30 END COLLECTION
M  V30 END CTAB
M  END
>  <Drug Name>
Fluocinolone Acetonide

>  <Carbon Count>
24

>  <SMILES String>
O=C1C=C[C@@]2(C)C([C@@H](F)C[C@]3([H])[C@]2(F)[C@@H](O)C[C@@]4(C)[C@@]3([H])C[C@@H]5[C@]4(OC(C)(C)O5)C(CO)=O)=C1

$$$$
Irbesartan
Actelion Java MolfileCreator 2.0

  0  0  0  0  0  0              0 V3000
M  V30 BEGIN CTAB
M  V30 COUNTS 32 36 0 0 0
M  V30 BEGIN ATOM
M  V30 1 O 6.0412 -0.7318 0.0 0
M  V30 2 C 5.0467 -0.8364 0.0 0
M  V30 3 N 4.3776 -0.0932 0.0 0
M  V30 4 C 4.5467 -1.7024 0.0 0
M  V30 5 C 3.4641 -0.5 0.0 0
M  V30 6 C 4.5855 0.8848 0.0 0
M  V30 7 N 3.5686 -1.4945 0.0 0
M  V30 8 C 4.0467 -2.5684 0.0 0
M  V30 9 C 5.5249 -1.9103 0.0 0
M  V30 10 C 2.598 0.0 0.0 0
M  V30 11 C 3.8424 1.554 0.0 0
M  V30 12 C 4.7159 -3.3116 0.0 0
M  V30 13 C 5.6294 -2.9048 0.0 0
M  V30 14 C 1.732 -0.5 0.0 0
M  V30 15 C 4.0503 2.5321 0.0 0
M  V30 16 C 2.8913 1.2449 0.0 0
M  V30 17 C 0.866 0.0 0.0 0
M  V30 18 C 3.3071 3.2012 0.0 0
M  V30 19 C 2.1482 1.9141 0.0 0
M  V30 20 C 0.0 -0.5 0.0 0
M  V30 21 C 2.3561 2.8922 0.0 0
M  V30 22 C 1.6129 3.5614 0.0 0
M  V30 23 C 1.8208 4.5395 0.0 0
M  V30 24 C 0.6619 3.2523 0.0 0
M  V30 25 C 2.7719 4.8485 0.0 0
M  V30 26 C 1.0777 5.2086 0.0 0
M  V30 27 C -0.0812 3.9215 0.0 0
M  V30 28 N 3.5809 4.2607 0.0 0
M  V30 29 N 3.0809 5.7996 0.0 0
M  V30 30 C 0.1266 4.8996 0.0 0
M  V30 31 N 4.3899 4.8485 0.0 0
M  V30 32 N 4.0809 5.7996 0.0 0
M  V30 END ATOM
M  V30 BEGIN BOND
M  V30 1 2 1 2
M  V30 2 1 2 3
M  V30 3 1 2 4
M  V30 4 1 3 5
M  V30 5 1 3 6
M  V30 6 1 4 7
M  V30 7 1 4 8
M  V30 8 1 4 9
M  V30 9 1 5 10
M  V30 10 1 6 11
M  V30 11 1 8 12
M  V30 12 1 9 13
M  V30 13 1 10 14
M  V30 14 2 11 15
M  V30 15 1 11 16
M  V30 16 1 14 17
M  V30 17 1 15 18
M  V30 18 2 16 19
M  V30 19 1 17 20
M  V30 20 2 18 21
M  V30 21 1 21 22
M  V30 22 2 22 23
M  V30 23 1 22 24
M  V30 24 1 23 25
M  V30 25 1 23 26
M  V30 26 2 24 27
M  V30 27 1 25 28
M  V30 28 2 25 29
M  V30 29 2 26 30
M  V30 30 2 28 31
M  V30 31 1 29 32
M  V30 32 2 5 7
M  V30 33 1 12 13
M  V30 34 1 19 21
M  V30 35 1 27 30
M  V30 36 1 31 32
M  V30 END BOND
M  V30 END CTAB
M  END
>  <Drug Name>
Irbesartan

>  <Carbon Count>
25

>  <SMILES String>
O=C1N(C(CCCC)=NC12CCCC2)CC3=CC=C(C4=C(C5=NN=NN5)C=CC=C4)C=C3

$$$$
Umeclidinium
Actelion Java MolfileCreator 2.0

  0  0  0  0  0  0              0 V3000
M  V30 BEGIN CTAB
M  V30 COUNTS 32 36 0 0 0
M  V30 BEGIN ATOM
M  V30 1 O 2.598 0.0 0.0 0
M  V30 2 C 3.4641 -0.5 0.0 0
M  V30 3 C 1.732 -0.5 0.0 0
M  V30 4 C 4.3301 0.0 0.0 0
M  V30 5 C 0.866 0.0 0.0 0
M  V30 6 C 5.1961 -0.4999 0.0 0
M  V30 7 C 4.3301 0.9999 0.0 0
M  V30 8 N 0.0 -0.5 0.0 0 CHG=1
M  V30 9 C 6.0621 0.0 0.0 0
M  V30 10 C 5.1961 1.4999 0.0 0
M  V30 11 C -0.7991 0.1011 0.0 0
M  V30 12 C -0.2499 -1.5083 0.0 0
M  V30 13 C 0.2181 -2.2895 0.0 0
M  V30 14 C 6.0621 1.0 0.0 0
M  V30 15 C -1.7193 -0.2904 0.0 0
M  V30 16 C -0.9446 -1.773 0.0 0
M  V30 17 C -0.7766 -2.7335 0.0 0
M  V30 18 C -1.8403 -1.2831 0.0 0
M  V30 19 C -2.801 -1.5604 0.0 0
M  V30 20 O -3.5216 -0.867 0.0 0
M  V30 21 C -2.0805 -2.2538 0.0 0
M  V30 22 C -3.0412 -2.5311 0.0 0
M  V30 23 C -2.1956 -3.2245 0.0 0
M  V30 24 C -1.1526 -2.0327 0.0 0
M  V30 25 C -4.002 -2.8085 0.0 0
M  V30 26 C -2.5706 -3.2245 0.0 0
M  V30 27 C -1.6001 -3.9179 0.0 0
M  V30 28 C -0.3116 -2.7581 0.0 0
M  V30 29 C -4.2422 -3.7792 0.0 0
M  V30 30 C -2.5608 -4.1952 0.0 0
M  V30 31 C -0.6393 -3.6405 0.0 0
M  V30 32 C -3.5216 -4.4726 0.0 0
M  V30 END ATOM
M  V30 BEGIN BOND
M  V30 1 1 1 2
M  V30 2 1 1 3
M  V30 3 1 2 4
M  V30 4 1 3 5
M  V30 5 2 4 6
M  V30 6 1 4 7
M  V30 7 1 5 8
M  V30 8 1 6 9
M  V30 9 2 7 10
M  V30 10 1 8 11
M  V30 11 1 8 12
M  V30 12 1 8 13
M  V30 13 2 9 14
M  V30 14 1 11 15
M  V30 15 1 12 16
M  V30 16 1 13 17
M  V30 17 1 15 18
M  V30 18 1 18 19
M  V30 19 1 19 20
M  V30 20 1 19 21
M  V30 21 1 19 22
M  V30 22 2 21 23
M  V30 23 1 21 24
M  V30 24 2 22 25
M  V30 25 1 22 26
M  V30 26 1 23 27
M  V30 27 2 24 28
M  V30 28 1 25 29
M  V30 29 2 26 30
M  V30 30 2 27 31
M  V30 31 2 29 32
M  V30 32 1 10 14
M  V30 33 1 16 18
M  V30 34 1 17 18
M  V30 35 1 28 31
M  V30 36 1 30 32
M  V30 END BOND
M  V30 END CTAB
M  END
>  <Drug Name>
Umeclidinium

>  <Carbon Count>
29

>  <SMILES String>
OC(C1=CC=CC=C1)(C23CC[N+](CC2)(CC3)CCOCC4=CC=CC=C4)C5=CC=CC=C5

$$$$
Bictegravir
Actelion Java MolfileCreator 2.0

  0  0  0  0  0  0              0 V3000
M  V30 BEGIN CTAB
M  V30 COUNTS 32 36 0 0 0
M  V30 BEGIN ATOM
M  V30 1 F 4.3301 0.9999 0.0 0
M  V30 2 C 4.3301 0.0 0.0 0
M  V30 3 C 3.4641 -0.5 0.0 0
M  V30 4 C 5.1961 -0.5 0.0 0
M  V30 5 C 3.4641 -1.5 0.0 0
M  V30 6 C 2.598 0.0 0.0 0
M  V30 7 C 5.1961 -1.5 0.0 0
M  V30 8 F 2.598 -1.9999 0.0 0
M  V30 9 C 4.3301 -2.0 0.0 0
M  V30 10 N 1.732 -0.5 0.0 0
M  V30 11 F 6.0621 -2.0 0.0 0
M  V30 12 C 0.866 0.0 0.0 0
M  V30 13 O 0.866 1.0 0.0 0
M  V30 14 C 0.0 -0.5 0.0 0
M  V30 15 C 0.0 -1.4999 0.0 0
M  V30 16 C -0.866 0.0 0.0 0
M  V30 17 O 0.866 -1.9999 0.0 0
M  V30 18 C -0.866 -1.9999 0.0 0
M  V30 19 N -1.732 -0.4999 0.0 0
M  V30 20 O -0.866 -2.9999 0.0 0
M  V30 21 C -1.732 -1.4999 0.0 0
M  V30 22 C -2.598 0.0 0.0 0
M  V30 23 C -2.598 -1.9999 0.0 0
M  V30 24 C -3.4641 -0.4999 0.0 0 CFG=1
M  V30 25 O -2.598 -2.9999 0.0 0
M  V30 26 N -3.4641 -1.4999 0.0 0
M  V30 27 O -4.3301 0.0 0.0 0
M  V30 28 C -4.6726 -2.1319 0.0 0 CFG=1
M  V30 29 C -5.4816 -0.7306 0.0 0 CFG=2
M  V30 30 C -4.5681 -1.1374 0.0 0
M  V30 31 C -5.6507 -2.3398 0.0 0
M  V30 32 C -6.1507 -1.4738 0.0 0
M  V30 END ATOM
M  V30 BEGIN BOND
M  V30 1 1 1 2
M  V30 2 2 2 3
M  V30 3 1 2 4
M  V30 4 1 3 5
M  V30 5 1 3 6
M  V30 6 2 4 7
M  V30 7 1 5 8
M  V30 8 2 5 9
M  V30 9 1 6 10
M  V30 10 1 7 11
M  V30 11 1 10 12
M  V30 12 2 12 13
M  V30 13 1 12 14
M  V30 14 1 14 15
M  V30 15 2 14 16
M  V30 16 2 15 17
M  V30 17 1 15 18
M  V30 18 1 16 19
M  V30 19 1 18 20
M  V30 20 2 18 21
M  V30 21 1 19 22
M  V30 22 1 21 23
M  V30 23 1 22 24
M  V30 24 2 23 25
M  V30 25 1 23 26
M  V30 26 1 24 27 CFG=1
M  V30 27 1 28 26 CFG=3
M  V30 28 1 29 27 CFG=3
M  V30 29 1 28 30
M  V30 30 1 28 31
M  V30 31 1 29 32
M  V30 32 1 7 9
M  V30 33 1 19 21
M  V30 34 1 24 26
M  V30 35 1 29 30
M  V30 36 1 31 32
M  V30 END BOND
M  V30 BEGIN COLLECTION
M  V30 MDLV30/STERAC1 ATOMS=(3 24 28 29)
M  V30 END COLLECTION
M  V30 END CTAB
M  END
>  <Drug Name>
Bictegravir

>  <Carbon Count>
21

>  <SMILES String>
c1c(cc(c(c1F)CNC(=O)c2cn3c(c(c2=O)O)C(=O)N4[C@H]5CC[C@H](C5)O[C@@H]4C3)F)F

$$$$
Mitoxantrone
Actelion Java MolfileCreator 2.0

  0  0  0  0  0  0              0 V3000
M  V30 BEGIN CTAB
M  V30 COUNTS 32 34 0 0 0
M  V30 BEGIN ATOM
M  V30 1 O 6.0621 -1.9999 0.0 0
M  V30 2 C 6.9282 -1.4999 0.0 0
M  V30 3 C 7.7942 -2.0 0.0 0
M  V30 4 C 6.9282 -0.5 0.0 0
M  V30 5 C 8.6602 -1.5 0.0 0
M  V30 6 C 7.7942 -2.9999 0.0 0
M  V30 7 C 7.7942 0.0 0.0 0
M  V30 8 C 6.0621 0.0 0.0 0
M  V30 9 C 8.6602 -0.5 0.0 0
M  V30 10 C 9.5262 -2.0 0.0 0
M  V30 11 O 6.9282 -3.4999 0.0 0
M  V30 12 C 8.6602 -3.5 0.0 0
M  V30 13 C 7.7942 1.0 0.0 0
M  V30 14 N 5.1961 -0.5 0.0 0
M  V30 15 C 6.0621 1.0 0.0 0
M  V30 16 O 9.5262 0.0 0.0 0
M  V30 17 O 10.3923 -1.5 0.0 0
M  V30 18 C 9.5262 -3.0 0.0 0
M  V30 19 N 8.6602 1.5 0.0 0
M  V30 20 C 6.9282 1.4999 0.0 0
M  V30 21 C 4.3301 0.0 0.0 0
M  V30 22 C 9.5262 1.0 0.0 0
M  V30 23 C 3.4641 -0.5 0.0 0
M  V30 24 C 10.3923 1.5 0.0 0
M  V30 25 N 2.598 0.0 0.0 0
M  V30 26 N 11.2583 1.0 0.0 0
M  V30 27 C 1.732 -0.5 0.0 0
M  V30 28 C 12.1243 1.5 0.0 0
M  V30 29 C 0.866 0.0 0.0 0
M  V30 30 C 12.9903 1.0 0.0 0
M  V30 31 O 0.0 -0.5 0.0 0
M  V30 32 O 13.8564 1.5 0.0 0
M  V30 END ATOM
M  V30 BEGIN BOND
M  V30 1 2 1 2
M  V30 2 1 2 3
M  V30 3 1 2 4
M  V30 4 2 3 5
M  V30 5 1 3 6
M  V30 6 2 4 7
M  V30 7 1 4 8
M  V30 8 1 5 9
M  V30 9 1 5 10
M  V30 10 1 6 11
M  V30 11 2 6 12
M  V30 12 1 7 13
M  V30 13 1 8 14
M  V30 14 2 8 15
M  V30 15 2 9 16
M  V30 16 1 10 17
M  V30 17 2 10 18
M  V30 18 1 13 19
M  V30 19 2 13 20
M  V30 20 1 14 21
M  V30 21 1 19 22
M  V30 22 1 21 23
M  V30 23 1 22 24
M  V30 24 1 23 25
M  V30 25 1 24 26
M  V30 26 1 25 27
M  V30 27 1 26 28
M  V30 28 1 27 29
M  V30 29 1 28 30
M  V30 30 1 29 31
M  V30 31 1 30 32
M  V30 32 1 7 9
M  V30 33 1 12 18
M  V30 34 1 15 20
M  V30 END BOND
M  V30 END CTAB
M  END
>  <Drug Name>
Mitoxantrone

>  <Carbon Count>
22

>  <SMILES String>
OC1=C2C(C(C(C(NCCNCCO)=CC=C3NCCNCCO)=C3C2=O)=O)=C(O)C=C1

$$$$
Quinapril
Actelion Java MolfileCreator 2.0

  0  0  0  0  0  0              0 V3000
M  V30 BEGIN CTAB
M  V30 COUNTS 32 34 0 0 0
M  V30 BEGIN ATOM
M  V30 1 O 8.6602 1.5 0.0 0
M  V30 2 C 7.7942 1.0 0.0 0
M  V30 3 O 6.9282 1.4999 0.0 0
M  V30 4 C 7.7942 0.0 0.0 0 CFG=1
M  V30 5 N 6.9282 -0.5 0.0 0
M  V30 6 C 8.6602 -0.4999 0.0 0
M  V30 7 C 6.0621 0.0 0.0 0
M  V30 8 C 6.9282 -1.4999 0.0 0
M  V30 9 C 8.6602 -1.4999 0.0 0
M  V30 10 O 6.0621 0.9999 0.0 0
M  V30 11 C 5.1961 -0.5 0.0 0 CFG=1
M  V30 12 C 7.7942 -2.0 0.0 0
M  V30 13 C 9.5262 -1.9999 0.0 0
M  V30 14 N 4.3301 0.0 0.0 0
M  V30 15 C 5.1961 -1.4999 0.0 0
M  V30 16 C 7.7942 -3.0 0.0 0
M  V30 17 C 9.5262 -2.9999 0.0 0
M  V30 18 C 3.4641 -0.5 0.0 0 CFG=2
M  V30 19 C 8.6602 -3.4999 0.0 0
M  V30 20 C 2.598 0.0 0.0 0
M  V30 21 C 3.4641 -1.5 0.0 0
M  V30 22 O 2.598 1.0 0.0 0
M  V30 23 O 1.732 -0.5 0.0 0
M  V30 24 C 2.598 -2.0 0.0 0
M  V30 25 C 0.866 0.0 0.0 0
M  V30 26 C 2.598 -3.0 0.0 0
M  V30 27 C 0.0 -0.5 0.0 0
M  V30 28 C 1.732 -3.4999 0.0 0
M  V30 29 C 3.4641 -3.5 0.0 0
M  V30 30 C 1.732 -4.5 0.0 0
M  V30 31 C 3.4641 -4.5 0.0 0
M  V30 32 C 2.598 -5.0 0.0 0
M  V30 END ATOM
M  V30 BEGIN BOND
M  V30 1 2 1 2
M  V30 2 1 2 3
M  V30 3 1 4 2 CFG=3
M  V30 4 1 4 5
M  V30 5 1 4 6
M  V30 6 1 5 7
M  V30 7 1 5 8
M  V30 8 1 6 9
M  V30 9 2 7 10
M  V30 10 1 7 11
M  V30 11 1 8 12
M  V30 12 1 9 13
M  V30 13 1 11 14
M  V30 14 1 11 15 CFG=3
M  V30 15 1 12 16
M  V30 16 2 13 17
M  V30 17 1 18 14 CFG=1
M  V30 18 2 16 19
M  V30 19 1 18 20
M  V30 20 1 18 21
M  V30 21 2 20 22
M  V30 22 1 20 23
M  V30 23 1 21 24
M  V30 24 1 23 25
M  V30 25 1 24 26
M  V30 26 1 25 27
M  V30 27 2 26 28
M  V30 28 1 26 29
M  V30 29 1 28 30
M  V30 30 2 29 31
M  V30 31 2 30 32
M  V30 32 2 9 12
M  V30 33 1 17 19
M  V30 34 1 31 32
M  V30 END BOND
M  V30 BEGIN COLLECTION
M  V30 MDLV30/STEABS ATOMS=(3 4 11 18)
M  V30 END COLLECTION
M  V30 END CTAB
M  END
>  <Drug Name>
Quinapril

>  <Carbon Count>
25

>  <SMILES String>
O=C(O)[C@@H]1CC2=CC=CC=C2CN1C([C@H](C)N[C@@H](CCC3=CC=CC=C3)C(OCC)=O)=O

$$$$
Raltegravir
Actelion Java MolfileCreator 2.0

  0  0  0  0  0  0              0 V3000
M  V30 BEGIN CTAB
M  V30 COUNTS 32 34 0 0 0
M  V30 BEGIN ATOM
M  V30 1 F 9.0932 -3.0 0.0 0
M  V30 2 C 7.7942 -2.25 0.0 0
M  V30 3 C 7.7942 -0.75 0.0 0
M  V30 4 C 6.4951 -3.0 0.0 0
M  V30 5 C 6.4951 0.0 0.0 0
M  V30 6 C 5.1961 -2.25 0.0 0
M  V30 7 C 5.1961 -0.75 0.0 0
M  V30 8 C 3.8971 0.0 0.0 0
M  V30 9 N 2.598 -0.75 0.0 0
M  V30 10 C 1.299 0.0 0.0 0
M  V30 11 O 1.299 1.5 0.0 0
M  V30 12 C 0.0 -0.75 0.0 0
M  V30 13 N -1.299 0.0 0.0 0
M  V30 14 C 0.0 -2.25 0.0 0
M  V30 15 C -2.598 -0.75 0.0 0
M  V30 16 O 1.299 -3.0 0.0 0
M  V30 17 C -1.299 -3.0 0.0 0
M  V30 18 N -2.598 -2.25 0.0 0
M  V30 19 C -3.8971 0.0 0.0 0
M  V30 20 O -1.299 -4.5 0.0 0
M  V30 21 C -3.8971 -3.0 0.0 0
M  V30 22 N -5.1961 -0.75 0.0 0
M  V30 23 C -3.1471 1.299 0.0 0
M  V30 24 C -4.6471 1.299 0.0 0
M  V30 25 C -6.4951 0.0 0.0 0
M  V30 26 O -6.4951 1.5 0.0 0
M  V30 27 C -7.7942 -0.75 0.0 0
M  V30 28 O -9.1645 -0.1398 0.0 0
M  V30 29 N -7.951 -2.2417 0.0 0
M  V30 30 C -10.1682 -1.2546 0.0 0
M  V30 31 N -9.4182 -2.5536 0.0 0
M  V30 32 C -11.66 -1.0978 0.0 0
M  V30 END ATOM
M  V30 BEGIN BOND
M  V30 1 1 1 2
M  V30 2 2 2 3
M  V30 3 1 2 4
M  V30 4 1 3 5
M  V30 5 2 4 6
M  V30 6 2 5 7
M  V30 7 1 7 8
M  V30 8 1 8 9
M  V30 9 1 9 10
M  V30 10 2 10 11
M  V30 11 1 10 12
M  V30 12 1 12 13
M  V30 13 2 12 14
M  V30 14 2 13 15
M  V30 15 1 14 16
M  V30 16 1 14 17
M  V30 17 1 15 18
M  V30 18 1 15 19
M  V30 19 2 17 20
M  V30 20 1 18 21
M  V30 21 1 19 22
M  V30 22 1 19 23
M  V30 23 1 19 24
M  V30 24 1 22 25
M  V30 25 2 25 26
M  V30 26 1 25 27
M  V30 27 1 27 28
M  V30 28 2 27 29
M  V30 29 1 28 30
M  V30 30 1 29 31
M  V30 31 1 30 32
M  V30 32 1 6 7
M  V30 33 1 17 18
M  V30 34 2 30 31
M  V30 END BOND
M  V30 END CTAB
M  END
>  <Drug Name>
Raltegravir

>  <Carbon Count>
20

>  <SMILES String>
O=C1C(O)=C(C(NCC2=CC=C(C=C2)F)=O)N=C(C(C)(C)NC(C3=NN=C(C)O3)=O)N1C

$$$$
Tobramycin
Actelion Java MolfileCreator 2.0

  0  0  0  0  0  0              0 V3000
M  V30 BEGIN CTAB
M  V30 COUNTS 32 34 0 0 0
M  V30 BEGIN ATOM
M  V30 1 O 2.598 -2.25 0.0 0
M  V30 2 C 2.598 -0.75 0.0 0 CFG=2
M  V30 3 C 3.8971 -3.0 0.0 0 CFG=1
M  V30 4 O 1.299 0.0 0.0 0
M  V30 5 C 3.8971 0.0 0.0 0 CFG=2
M  V30 6 C 5.1961 -2.25 0.0 0 CFG=2
M  V30 7 C 3.8971 -4.5 0.0 0
M  V30 8 C 0.0 -0.75 0.0 0 CFG=2
M  V30 9 O 3.8971 1.4999 0.0 0
M  V30 10 C 5.1961 -0.75 0.0 0 CFG=2
M  V30 11 O 6.4951 -3.0 0.0 0
M  V30 12 O 2.598 -5.25 0.0 0
M  V30 13 C -1.299 0.0 0.0 0 CFG=1
M  V30 14 C 0.0 -2.25 0.0 0 CFG=2
M  V30 15 N 6.4951 0.0 0.0 0
M  V30 16 O -1.299 1.5 0.0 0
M  V30 17 C -2.598 -0.7499 0.0 0 CFG=2
M  V30 18 N 1.299 -3.0 0.0 0
M  V30 19 C -1.299 -2.9999 0.0 0
M  V30 20 O -3.8971 0.0 0.0 0
M  V30 21 C -2.598 -2.2499 0.0 0 CFG=2
M  V30 22 C -5.1961 -0.7499 0.0 0 CFG=1
M  V30 23 N -3.8971 -2.9999 0.0 0
M  V30 24 O -5.1961 -2.2499 0.0 0
M  V30 25 C -6.4951 0.0 0.0 0 CFG=2
M  V30 26 C -6.4951 -2.9999 0.0 0 CFG=1
M  V30 27 N -6.4951 1.5 0.0 0
M  V30 28 C -7.7942 -0.7499 0.0 0
M  V30 29 C -7.7942 -2.2499 0.0 0 CFG=2
M  V30 30 C -6.4951 -4.4999 0.0 0
M  V30 31 O -9.0932 -2.9999 0.0 0
M  V30 32 N -7.7942 -5.2499 0.0 0
M  V30 END ATOM
M  V30 BEGIN BOND
M  V30 1 1 1 2
M  V30 2 1 1 3
M  V30 3 1 2 4 CFG=3
M  V30 4 1 2 5
M  V30 5 1 3 6
M  V30 6 1 3 7 CFG=1
M  V30 7 1 8 4 CFG=1
M  V30 8 1 5 9 CFG=3
M  V30 9 1 5 10
M  V30 10 1 6 11 CFG=3
M  V30 11 1 7 12
M  V30 12 1 8 13
M  V30 13 1 8 14
M  V30 14 1 10 15 CFG=1
M  V30 15 1 13 16 CFG=3
M  V30 16 1 13 17
M  V30 17 1 14 18 CFG=3
M  V30 18 1 14 19
M  V30 19 1 17 20 CFG=1
M  V30 20 1 17 21
M  V30 21 1 22 20 CFG=1
M  V30 22 1 21 23 CFG=3
M  V30 23 1 22 24
M  V30 24 1 22 25
M  V30 25 1 24 26
M  V30 26 1 25 27 CFG=1
M  V30 27 1 25 28
M  V30 28 1 26 29
M  V30 29 1 26 30 CFG=3
M  V30 30 1 29 31 CFG=1
M  V30 31 1 30 32
M  V30 32 1 6 10
M  V30 33 1 19 21
M  V30 34 1 28 29
M  V30 END BOND
M  V30 BEGIN COLLECTION
M  V30 MDLV30/STEABS ATOMS=(14 2 3 5 6 8 10 13 14 17 21 22 25 26 29)
M  V30 END COLLECTION
M  V30 END CTAB
M  END
>  <Drug Name>
Tobramycin

>  <Carbon Count>
18

>  <SMILES String>
N[C@H]1[C@@H](O)[C@@H](O[C@@H]2[C@@H](O)[C@@H]([C@@H](N)C[C@H]2N)O[C@H]([C@H](N)C[C@@H]3O)O[C@@H]3CN)O[C@H](CO)[C@H]1O

$$$$
Valsartan
Actelion Java MolfileCreator 2.0

  0  0  0  0  0  0              0 V3000
M  V30 BEGIN CTAB
M  V30 COUNTS 32 34 0 0 0
M  V30 BEGIN ATOM
M  V30 1 O 6.9282 -0.5 0.0 0
M  V30 2 C 6.0621 0.0 0.0 0
M  V30 3 O 6.0621 0.9999 0.0 0
M  V30 4 C 5.1961 -0.5 0.0 0 CFG=1
M  V30 5 N 4.3301 0.0 0.0 0
M  V30 6 C 5.1961 -1.5 0.0 0
M  V30 7 C 3.4641 -0.5 0.0 0
M  V30 8 C 4.3301 1.0 0.0 0
M  V30 9 C 4.3301 -1.9999 0.0 0
M  V30 10 C 6.0621 -2.0 0.0 0
M  V30 11 O 3.4641 -1.5 0.0 0
M  V30 12 C 2.598 0.0 0.0 0
M  V30 13 C 3.4641 1.5 0.0 0
M  V30 14 C 1.732 -0.5 0.0 0
M  V30 15 C 3.4641 2.5 0.0 0
M  V30 16 C 2.598 1.0 0.0 0
M  V30 17 C 0.866 0.0 0.0 0
M  V30 18 C 2.598 3.0 0.0 0
M  V30 19 C 1.732 1.5 0.0 0
M  V30 20 C 0.0 -0.5 0.0 0
M  V30 21 C 1.732 2.5 0.0 0
M  V30 22 C 0.866 3.0 0.0 0
M  V30 23 C 0.866 4.0 0.0 0
M  V30 24 C 0.0 2.5 0.0 0
M  V30 25 C 1.732 4.5 0.0 0
M  V30 26 C 0.0 4.5 0.0 0
M  V30 27 C -0.866 3.0 0.0 0
M  V30 28 N 2.6455 4.0932 0.0 0
M  V30 29 N 1.8365 5.4945 0.0 0
M  V30 30 C -0.866 4.0 0.0 0
M  V30 31 N 3.3147 4.8364 0.0 0
M  V30 32 N 2.8147 5.7024 0.0 0
M  V30 END ATOM
M  V30 BEGIN BOND
M  V30 1 2 1 2
M  V30 2 1 2 3
M  V30 3 1 2 4
M  V30 4 1 4 5 CFG=3
M  V30 5 1 4 6
M  V30 6 1 5 7
M  V30 7 1 5 8
M  V30 8 1 6 9
M  V30 9 1 6 10
M  V30 10 2 7 11
M  V30 11 1 7 12
M  V30 12 1 8 13
M  V30 13 1 12 14
M  V30 14 2 13 15
M  V30 15 1 13 16
M  V30 16 1 14 17
M  V30 17 1 15 18
M  V30 18 2 16 19
M  V30 19 1 17 20
M  V30 20 2 18 21
M  V30 21 1 21 22
M  V30 22 2 22 23
M  V30 23 1 22 24
M  V30 24 1 23 25
M  V30 25 1 23 26
M  V30 26 2 24 27
M  V30 27 1 25 28
M  V30 28 2 25 29
M  V30 29 2 26 30
M  V30 30 2 28 31
M  V30 31 1 29 32
M  V30 32 1 19 21
M  V30 33 1 27 30
M  V30 34 1 31 32
M  V30 END BOND
M  V30 BEGIN COLLECTION
M  V30 MDLV30/STEABS ATOMS=(1 4)
M  V30 END COLLECTION
M  V30 END CTAB
M  END
>  <Drug Name>
Valsartan

>  <Carbon Count>
24

>  <SMILES String>
CC([C@H](N(CC1=CC=C(C2=C(C3=NN=NN3)C=CC=C2)C=C1)C(CCCC)=O)C(O)=O)C

$$$$
Vilanterol
Actelion Java MolfileCreator 2.0

  0  0  0  0  0  0              0 V3000
M  V30 BEGIN CTAB
M  V30 COUNTS 32 33 0 0 0
M  V30 BEGIN ATOM
M  V30 1 Cl 18.1865 2.25 0.0 0
M  V30 2 C 19.4855 1.5 0.0 0
M  V30 3 C 19.4855 0.0 0.0 0
M  V30 4 C 20.7846 2.25 0.0 0
M  V30 5 C 20.7846 -0.75 0.0 0
M  V30 6 C 18.1865 -0.75 0.0 0
M  V30 7 C 22.0836 1.5 0.0 0
M  V30 8 Cl 20.7846 -2.25 0.0 0
M  V30 9 C 22.0836 0.0 0.0 0
M  V30 10 O 16.8874 0.0 0.0 0
M  V30 11 C 15.5884 -0.75 0.0 0
M  V30 12 C 14.2894 0.0 0.0 0
M  V30 13 O 12.9903 -0.75 0.0 0
M  V30 14 C 11.6913 0.0 0.0 0
M  V30 15 C 10.3923 -0.75 0.0 0
M  V30 16 C 9.0932 0.0 0.0 0
M  V30 17 C 7.7942 -0.75 0.0 0
M  V30 18 C 6.4951 0.0 0.0 0
M  V30 19 C 5.1961 -0.75 0.0 0
M  V30 20 N 3.8971 0.0 0.0 0
M  V30 21 C 2.598 -0.75 0.0 0
M  V30 22 C 1.299 0.0 0.0 0 CFG=2
M  V30 23 O 1.299 1.5 0.0 0
M  V30 24 C 0.0 -0.75 0.0 0
M  V30 25 C -1.299 0.0 0.0 0
M  V30 26 C 0.0 -2.25 0.0 0
M  V30 27 C -2.598 -0.7499 0.0 0
M  V30 28 C -1.299 -2.9999 0.0 0
M  V30 29 C -2.598 -2.2499 0.0 0
M  V30 30 C -3.8971 0.0 0.0 0
M  V30 31 O -3.8971 -2.9999 0.0 0
M  V30 32 O -5.1961 -0.7499 0.0 0
M  V30 END ATOM
M  V30 BEGIN BOND
M  V30 1 1 1 2
M  V30 2 2 2 3
M  V30 3 1 2 4
M  V30 4 1 3 5
M  V30 5 1 3 6
M  V30 6 2 4 7
M  V30 7 1 5 8
M  V30 8 2 5 9
M  V30 9 1 6 10
M  V30 10 1 10 11
M  V30 11 1 11 12
M  V30 12 1 12 13
M  V30 13 1 13 14
M  V30 14 1 14 15
M  V30 15 1 15 16
M  V30 16 1 16 17
M  V30 17 1 17 18
M  V30 18 1 18 19
M  V30 19 1 19 20
M  V30 20 1 20 21
M  V30 21 1 21 22
M  V30 22 1 22 23 CFG=1
M  V30 23 1 22 24
M  V30 24 2 24 25
M  V30 25 1 24 26
M  V30 26 1 25 27
M  V30 27 2 26 28
M  V30 28 2 27 29
M  V30 29 1 27 30
M  V30 30 1 29 31
M  V30 31 1 30 32
M  V30 32 1 7 9
M  V30 33 1 28 29
M  V30 END BOND
M  V30 BEGIN COLLECTION
M  V30 MDLV30/STEABS ATOMS=(1 22)
M  V30 END COLLECTION
M  V30 END CTAB
M  END
>  <Drug Name>
Vilanterol

>  <Carbon Count>
24

>  <SMILES String>
ClC1=CC=CC(Cl)=C1COCCOCCCCCCNC[C@@H](C2=CC(CO)=C(C=C2)O)O

$$$$
Loteprednol Etabonate
Actelion Java MolfileCreator 2.0

  0  0  0  0  0  0              0 V3000
M  V30 BEGIN CTAB
M  V30 COUNTS 32 35 0 0 0
M  V30 BEGIN ATOM
M  V30 1 Cl 2.359 -5.3798 0.0 0
M  V30 2 C 2.4375 -3.8818 0.0 0
M  V30 3 O 1.1795 -3.0649 0.0 0
M  V30 4 C 1.258 -1.5669 0.0 0
M  V30 5 O 2.5945 -0.8859 0.0 0
M  V30 6 C 0.0 -0.75 0.0 0 CFG=2
M  V30 7 O 1.299 0.0 0.0 0
M  V30 8 C -1.3703 -0.1398 0.0 0 CFG=2
M  V30 9 C -0.1567 -2.2417 0.0 0
M  V30 10 C 1.299 1.5 0.0 0
M  V30 11 C -2.374 -1.2546 0.0 0 CFG=1
M  V30 12 C -1.8338 1.2866 0.0 0
M  V30 13 C -0.2556 0.8638 0.0 0
M  V30 14 C -1.624 -2.5536 0.0 0
M  V30 15 O 0.0 2.25 0.0 0
M  V30 16 O 2.598 2.25 0.0 0
M  V30 17 C -3.8412 -0.9427 0.0 0 CFG=1
M  V30 18 C -3.301 1.5985 0.0 0 CFG=1
M  V30 19 C 2.598 3.75 0.0 0
M  V30 20 C -4.3047 0.4838 0.0 0 CFG=2
M  V30 21 C -4.8449 -2.0574 0.0 0
M  V30 22 O -3.7645 3.0251 0.0 0
M  V30 23 C 3.8971 4.5 0.0 0
M  V30 24 C -5.7719 0.7957 0.0 0 CFG=2
M  V30 25 C -6.3121 -1.7455 0.0 0
M  V30 26 C -6.7756 -0.319 0.0 0
M  V30 27 C -6.2355 2.2222 0.0 0
M  V30 28 C -4.7682 1.9104 0.0 0
M  V30 29 C -8.2428 -0.0071 0.0 0
M  V30 30 C -7.7027 2.5341 0.0 0
M  V30 31 C -8.7064 1.4194 0.0 0
M  V30 32 O -10.1736 1.7313 0.0 0
M  V30 END ATOM
M  V30 BEGIN BOND
M  V30 1 1 1 2
M  V30 2 1 2 3
M  V30 3 1 3 4
M  V30 4 2 4 5
M  V30 5 1 4 6
M  V30 6 1 6 7 CFG=3
M  V30 7 1 6 8
M  V30 8 1 6 9
M  V30 9 1 7 10
M  V30 10 1 8 11
M  V30 11 1 8 12
M  V30 12 1 8 13 CFG=1
M  V30 13 1 9 14
M  V30 14 2 10 15
M  V30 15 1 10 16
M  V30 16 1 11 17
M  V30 17 1 12 18
M  V30 18 1 16 19
M  V30 19 1 20 17 CFG=1
M  V30 20 1 17 21 CFG=3
M  V30 21 1 18 22 CFG=1
M  V30 22 1 19 23
M  V30 23 1 20 24
M  V30 24 1 21 25
M  V30 25 1 24 26
M  V30 26 1 24 27
M  V30 27 1 24 28 CFG=1
M  V30 28 2 26 29
M  V30 29 2 27 30
M  V30 30 1 29 31
M  V30 31 2 31 32
M  V30 32 1 11 14 CFG=1
M  V30 33 1 18 20
M  V30 34 1 25 26
M  V30 35 1 30 31
M  V30 END BOND
M  V30 BEGIN COLLECTION
M  V30 MDLV30/STERAC1 ATOMS=(7 6 8 11 17 18 20 24)
M  V30 END COLLECTION
M  V30 END CTAB
M  END
>  <Drug Name>
Loteprednol Etabonate

>  <Carbon Count>
24

>  <SMILES String>
O=C1C=C[C@@]2(C)C(CC[C@]3([H])[C@]2([H])[C@@H](O)C[C@@]4(C)[C@@]3([H])CC[C@@]4(C(OCCl)=O)OC(OCC)=O)=C1

$$$$
Doxycycline
Actelion Java MolfileCreator 2.0

  0  0  0  0  0  0              0 V3000
M  V30 BEGIN CTAB
M  V30 COUNTS 32 35 0 0 0
M  V30 BEGIN ATOM
M  V30 1 O 2.598 -4.9999 0.0 0
M  V30 2 C 3.4641 -4.4999 0.0 0
M  V30 3 C 4.3301 -4.9999 0.0 0
M  V30 4 C 3.4641 -3.4999 0.0 0
M  V30 5 C 4.3301 -5.9999 0.0 0
M  V30 6 C 5.1961 -4.4999 0.0 0
M  V30 7 C 2.598 -3.0 0.0 0
M  V30 8 C 4.3301 -2.9999 0.0 0 CFG=1
M  V30 9 O 3.4641 -6.4999 0.0 0
M  V30 10 C 5.1961 -6.4999 0.0 0
M  V30 11 C 6.0621 -4.9999 0.0 0
M  V30 12 C 5.1961 -3.4999 0.0 0 CFG=1
M  V30 13 O 1.732 -3.5 0.0 0
M  V30 14 C 2.598 -2.0 0.0 0 CFG=2
M  V30 15 C 4.3301 -1.9999 0.0 0 CFG=1
M  V30 16 C 6.0621 -5.9999 0.0 0
M  V30 17 C 6.0621 -2.9999 0.0 0
M  V30 18 O 1.732 -2.5 0.0 0
M  V30 19 C 1.732 -1.5 0.0 0
M  V30 20 C 3.4641 -1.4999 0.0 0 CFG=1
M  V30 21 O 5.1961 -1.4999 0.0 0
M  V30 22 O 0.866 -2.0 0.0 0
M  V30 23 C 1.732 -0.5 0.0 0
M  V30 24 C 3.4641 -0.4999 0.0 0 CFG=1
M  V30 25 C 2.598 0.0 0.0 0
M  V30 26 C 0.866 0.0 0.0 0
M  V30 27 N 4.3301 0.0 0.0 0
M  V30 28 O 2.598 1.0 0.0 0
M  V30 29 O 0.866 1.0 0.0 0
M  V30 30 N 0.0 -0.5 0.0 0
M  V30 31 C 5.1961 -0.4999 0.0 0
M  V30 32 C 4.3301 1.0 0.0 0
M  V30 END ATOM
M  V30 BEGIN BOND
M  V30 1 2 1 2
M  V30 2 1 2 3
M  V30 3 1 2 4
M  V30 4 2 3 5
M  V30 5 1 3 6
M  V30 6 2 4 7
M  V30 7 1 8 4 CFG=3
M  V30 8 1 5 9
M  V30 9 1 5 10
M  V30 10 2 6 11
M  V30 11 1 6 12
M  V30 12 1 7 13
M  V30 13 1 7 14
M  V30 14 1 8 15
M  V30 15 2 10 16
M  V30 16 1 12 17 CFG=1
M  V30 17 1 14 18 CFG=1
M  V30 18 1 14 19
M  V30 19 1 14 20
M  V30 20 1 15 21 CFG=1
M  V30 21 2 19 22
M  V30 22 1 19 23
M  V30 23 1 20 24 CFG=3
M  V30 24 2 23 25
M  V30 25 1 23 26
M  V30 26 1 24 27 CFG=1
M  V30 27 1 25 28
M  V30 28 2 26 29
M  V30 29 1 26 30
M  V30 30 1 27 31
M  V30 31 1 27 32
M  V30 32 1 8 12
M  V30 33 1 11 16
M  V30 34 1 15 20
M  V30 35 1 24 25
M  V30 END BOND
M  V30 BEGIN COLLECTION
M  V30 MDLV30/STEABS ATOMS=(6 8 12 14 15 20 24)
M  V30 END COLLECTION
M  V30 END CTAB
M  END
>  <Drug Name>
Doxycycline

>  <Carbon Count>
22

>  <SMILES String>
O=C([C@@H](N(C)C)[C@@]([C@@H](O)[C@@]1([H])C(C2=O)=C(O)C3=C(C=CC=C3O)[C@@H]1C)([H])[C@@]2(O)C/4=O)C4=C(O)/N

$$$$
Tetracycline
Actelion Java MolfileCreator 2.0

  0  0  0  0  0  0              0 V3000
M  V30 BEGIN CTAB
M  V30 COUNTS 32 35 0 0 0
M  V30 BEGIN ATOM
M  V30 1 O 3.8971 -7.5 0.0 0
M  V30 2 C 5.1961 -6.75 0.0 0
M  V30 3 C 6.4951 -7.5 0.0 0
M  V30 4 C 5.1961 -5.25 0.0 0
M  V30 5 C 6.4951 -9.0 0.0 0
M  V30 6 C 7.7942 -6.75 0.0 0
M  V30 7 C 3.8971 -4.5 0.0 0
M  V30 8 C 6.4951 -4.5 0.0 0 CFG=1
M  V30 9 O 5.1961 -9.75 0.0 0
M  V30 10 C 7.7942 -9.75 0.0 0
M  V30 11 C 9.0932 -7.5 0.0 0
M  V30 12 C 7.7942 -5.25 0.0 0 CFG=2
M  V30 13 O 2.598 -5.25 0.0 0
M  V30 14 C 3.8971 -3.0 0.0 0 CFG=2
M  V30 15 C 6.4951 -3.0 0.0 0
M  V30 16 C 9.0932 -9.0 0.0 0
M  V30 17 O 9.2942 -5.25 0.0 0
M  V30 18 C 8.5442 -3.9509 0.0 0
M  V30 19 O 2.598 -3.75 0.0 0
M  V30 20 C 2.598 -2.25 0.0 0
M  V30 21 C 5.1961 -2.25 0.0 0 CFG=1
M  V30 22 O 1.299 -3.0 0.0 0
M  V30 23 C 2.598 -0.75 0.0 0
M  V30 24 C 5.1961 -0.75 0.0 0 CFG=1
M  V30 25 C 3.8971 0.0 0.0 0
M  V30 26 C 1.299 0.0 0.0 0
M  V30 27 N 6.4951 0.0 0.0 0
M  V30 28 O 3.8971 1.5 0.0 0
M  V30 29 O 1.299 1.5 0.0 0
M  V30 30 N 0.0 -0.75 0.0 0
M  V30 31 C 7.7942 -0.75 0.0 0
M  V30 32 C 6.4951 1.5 0.0 0
M  V30 END ATOM
M  V30 BEGIN BOND
M  V30 1 2 1 2
M  V30 2 1 2 3
M  V30 3 1 2 4
M  V30 4 2 3 5
M  V30 5 1 3 6
M  V30 6 2 4 7
M  V30 7 1 4 8
M  V30 8 1 5 9
M  V30 9 1 5 10
M  V30 10 2 6 11
M  V30 11 1 6 12
M  V30 12 1 7 13
M  V30 13 1 7 14
M  V30 14 1 8 15 CFG=3
M  V30 15 2 10 16
M  V30 16 1 12 17 CFG=3
M  V30 17 1 12 18
M  V30 18 1 14 19 CFG=1
M  V30 19 1 14 20
M  V30 20 1 14 21
M  V30 21 2 20 22
M  V30 22 1 20 23
M  V30 23 1 21 24
M  V30 24 2 23 25
M  V30 25 1 23 26
M  V30 26 1 24 27 CFG=1
M  V30 27 1 25 28
M  V30 28 2 26 29
M  V30 29 1 26 30
M  V30 30 1 27 31
M  V30 31 1 27 32
M  V30 32 1 8 12
M  V30 33 1 11 16
M  V30 34 1 21 15 CFG=3
M  V30 35 1 24 25
M  V30 END BOND
M  V30 BEGIN COLLECTION
M  V30 MDLV30/STEABS ATOMS=(5 8 12 14 21 24)
M  V30 END COLLECTION
M  V30 END CTAB
M  END
>  <Drug Name>
Tetracycline

>  <Carbon Count>
22

>  <SMILES String>
OC1=CC=CC2=C1C(C3=C(O)[C@@](C(C(C(N)=O)=C(O)[C@H]4N(C)C)=O)(O)C4CC3[C@@]2(O)C)=O

$$$$
Difenoxin
Actelion Java MolfileCreator 2.0

  0  0  0  0  0  0              0 V3000
M  V30 BEGIN CTAB
M  V30 COUNTS 32 35 0 0 0
M  V30 BEGIN ATOM
M  V30 1 O 6.0489 0.944 0.0 0
M  V30 2 C 5.1961 1.5 0.0 0
M  V30 3 O 5.1961 2.5 0.0 0
M  V30 4 C 4.3301 1.0 0.0 0
M  V30 5 C 5.1961 0.5 0.0 0
M  V30 6 C 3.4641 1.5 0.0 0
M  V30 7 C 4.3301 0.0 0.0 0
M  V30 8 C 5.1961 -0.4999 0.0 0
M  V30 9 C 6.1839 1.1868 0.0 0
M  V30 10 C 2.598 0.9999 0.0 0
M  V30 11 C 3.4641 -0.4999 0.0 0
M  V30 12 C 6.0621 -0.9999 0.0 0
M  V30 13 C 6.9282 0.5 0.0 0
M  V30 14 N 2.598 0.0 0.0 0
M  V30 15 C 6.9282 -0.4999 0.0 0
M  V30 16 C 1.732 -0.5 0.0 0
M  V30 17 C 0.866 0.0 0.0 0
M  V30 18 C 0.0 -0.5 0.0 0
M  V30 19 C -0.866 -0.9999 0.0 0
M  V30 20 C 0.0 -1.5 0.0 0
M  V30 21 C -0.866 0.0 0.0 0
M  V30 22 N -1.732 -1.4999 0.0 0
M  V30 23 C -0.866 -1.9999 0.0 0
M  V30 24 C 0.866 -2.0 0.0 0
M  V30 25 C -0.866 1.0 0.0 0
M  V30 26 C -1.732 -0.4999 0.0 0
M  V30 27 C -0.866 -2.9999 0.0 0
M  V30 28 C 0.866 -3.0 0.0 0
M  V30 29 C -1.732 1.5 0.0 0
M  V30 30 C -2.598 0.0 0.0 0
M  V30 31 C 0.0 -3.4999 0.0 0
M  V30 32 C -2.598 1.0 0.0 0
M  V30 END ATOM
M  V30 BEGIN BOND
M  V30 1 2 1 2
M  V30 2 1 2 3
M  V30 3 1 2 4
M  V30 4 1 4 5
M  V30 5 1 4 6
M  V30 6 1 4 7
M  V30 7 2 5 8
M  V30 8 1 5 9
M  V30 9 1 6 10
M  V30 10 1 7 11
M  V30 11 1 8 12
M  V30 12 2 9 13
M  V30 13 1 10 14
M  V30 14 2 12 15
M  V30 15 1 14 16
M  V30 16 1 16 17
M  V30 17 1 17 18
M  V30 18 1 18 19
M  V30 19 1 18 20
M  V30 20 1 18 21
M  V30 21 3 19 22
M  V30 22 2 20 23
M  V30 23 1 20 24
M  V30 24 2 21 25
M  V30 25 1 21 26
M  V30 26 1 23 27
M  V30 27 2 24 28
M  V30 28 1 25 29
M  V30 29 2 26 30
M  V30 30 2 27 31
M  V30 31 2 29 32
M  V30 32 1 11 14
M  V30 33 1 13 15
M  V30 34 1 28 31
M  V30 35 1 30 32
M  V30 END BOND
M  V30 END CTAB
M  END
>  <Drug Name>
Difenoxin

>  <Carbon Count>
28

>  <SMILES String>
O=C(C1(C2=CC=CC=C2)CCN(CCC(C3=CC=CC=C3)(C#N)C4=CC=CC=C4)CC1)O

$$$$
Oxytetracycline
Actelion Java MolfileCreator 2.0

  0  0  0  0  0  0              0 V3000
M  V30 BEGIN CTAB
M  V30 COUNTS 33 36 0 0 0
M  V30 BEGIN ATOM
M  V30 1 O 3.8971 -7.5 0.0 0
M  V30 2 C 5.1961 -6.75 0.0 0
M  V30 3 C 6.4951 -7.5 0.0 0
M  V30 4 C 5.1961 -5.25 0.0 0
M  V30 5 C 6.4951 -9.0 0.0 0
M  V30 6 C 7.7942 -6.75 0.0 0
M  V30 7 C 3.8971 -4.5 0.0 0
M  V30 8 C 6.4951 -4.5 0.0 0 CFG=1
M  V30 9 O 5.1961 -9.75 0.0 0
M  V30 10 C 7.7942 -9.75 0.0 0
M  V30 11 C 9.0932 -7.5 0.0 0
M  V30 12 C 7.7942 -5.25 0.0 0 CFG=2
M  V30 13 O 2.598 -5.25 0.0 0
M  V30 14 C 3.8971 -3.0 0.0 0 CFG=2
M  V30 15 C 6.4951 -3.0 0.0 0 CFG=1
M  V30 16 C 9.0932 -9.0 0.0 0
M  V30 17 O 9.2942 -5.25 0.0 0
M  V30 18 C 8.5442 -3.9509 0.0 0
M  V30 19 O 2.598 -3.75 0.0 0
M  V30 20 C 2.598 -2.25 0.0 0
M  V30 21 C 5.1961 -2.25 0.0 0 CFG=1
M  V30 22 O 7.7942 -2.25 0.0 0
M  V30 23 O 1.299 -3.0 0.0 0
M  V30 24 C 2.598 -0.75 0.0 0
M  V30 25 C 5.1961 -0.75 0.0 0 CFG=1
M  V30 26 C 3.8971 0.0 0.0 0
M  V30 27 C 1.299 0.0 0.0 0
M  V30 28 N 6.4951 0.0 0.0 0
M  V30 29 O 3.8971 1.5 0.0 0
M  V30 30 O 1.299 1.5 0.0 0
M  V30 31 N 0.0 -0.75 0.0 0
M  V30 32 C 7.7942 -0.75 0.0 0
M  V30 33 C 6.4951 1.5 0.0 0
M  V30 END ATOM
M  V30 BEGIN BOND
M  V30 1 2 1 2
M  V30 2 1 2 3
M  V30 3 1 2 4
M  V30 4 2 3 5
M  V30 5 1 3 6
M  V30 6 2 4 7
M  V30 7 1 8 4 CFG=3
M  V30 8 1 5 9
M  V30 9 1 5 10
M  V30 10 2 6 11
M  V30 11 1 6 12
M  V30 12 1 7 13
M  V30 13 1 7 14
M  V30 14 1 8 15
M  V30 15 2 10 16
M  V30 16 1 12 17 CFG=3
M  V30 17 1 12 18
M  V30 18 1 14 19 CFG=1
M  V30 19 1 14 20
M  V30 20 1 14 21
M  V30 21 1 15 22 CFG=1
M  V30 22 2 20 23
M  V30 23 1 20 24
M  V30 24 1 21 25 CFG=3
M  V30 25 2 24 26
M  V30 26 1 24 27
M  V30 27 1 25 28 CFG=1
M  V30 28 1 26 29
M  V30 29 2 27 30
M  V30 30 1 27 31
M  V30 31 1 28 32
M  V30 32 1 28 33
M  V30 33 1 8 12
M  V30 34 1 11 16
M  V30 35 1 15 21
M  V30 36 1 25 26
M  V30 END BOND
M  V30 BEGIN COLLECTION
M  V30 MDLV30/STEABS ATOMS=(6 8 12 14 15 21 25)
M  V30 END COLLECTION
M  V30 END CTAB
M  END
>  <Drug Name>
Oxytetracycline

>  <Carbon Count>
22

>  <SMILES String>
O[C@@]([C@@]1([C@@H](C(O)=C2C(N)=O)N(C)C)[H])(C(O)=C(C3=O)[C@]([C@@H]1O)([C@](C)(O)C4=C3C(O)=CC=C4)[H])C2=O

$$$$
Vemurafenib
Actelion Java MolfileCreator 2.0

  0  0  0  0  0  0              0 V3000
M  V30 BEGIN CTAB
M  V30 COUNTS 33 36 0 0 0
M  V30 BEGIN ATOM
M  V30 1 Cl 4.6951 12.9919 0.0 0
M  V30 2 C 5.6988 11.8772 0.0 0
M  V30 3 C 7.166 12.1891 0.0 0
M  V30 4 C 5.2352 10.4506 0.0 0
M  V30 5 C 8.1697 11.0744 0.0 0
M  V30 6 C 6.2389 9.3359 0.0 0
M  V30 7 C 7.7062 9.6478 0.0 0
M  V30 8 C 8.7098 8.533 0.0 0
M  V30 9 C 10.1771 8.8449 0.0 0
M  V30 10 C 8.2463 7.1065 0.0 0
M  V30 11 N 11.1808 7.7302 0.0 0
M  V30 12 C 9.25 5.9917 0.0 0
M  V30 13 C 10.7172 6.3036 0.0 0
M  V30 14 C 9.0932 4.5 0.0 0
M  V30 15 N 11.4672 5.0046 0.0 0
M  V30 16 C 7.7942 3.75 0.0 0
M  V30 17 C 10.4635 3.8898 0.0 0
M  V30 18 O 6.4951 4.5 0.0 0
M  V30 19 C 7.7942 2.25 0.0 0
M  V30 20 C 6.4951 1.5 0.0 0
M  V30 21 C 9.0932 1.5 0.0 0
M  V30 22 F 5.1961 2.25 0.0 0
M  V30 23 C 6.4951 0.0 0.0 0
M  V30 24 F 10.3923 2.25 0.0 0
M  V30 25 C 9.0932 0.0 0.0 0
M  V30 26 N 5.1961 -0.75 0.0 0
M  V30 27 C 7.7942 -0.75 0.0 0
M  V30 28 S 5.1961 -2.25 0.0 0
M  V30 29 O 6.6961 -2.2499 0.0 0
M  V30 30 O 5.9461 -3.549 0.0 0
M  V30 31 C 3.8971 -3.0 0.0 0
M  V30 32 C 3.8971 -4.5 0.0 0
M  V30 33 C 2.598 -5.25 0.0 0
M  V30 END ATOM
M  V30 BEGIN BOND
M  V30 1 1 1 2
M  V30 2 2 2 3
M  V30 3 1 2 4
M  V30 4 1 3 5
M  V30 5 2 4 6
M  V30 6 2 5 7
M  V30 7 1 7 8
M  V30 8 2 8 9
M  V30 9 1 8 10
M  V30 10 1 9 11
M  V30 11 2 10 12
M  V30 12 2 11 13
M  V30 13 1 12 14
M  V30 14 1 13 15
M  V30 15 1 14 16
M  V30 16 2 14 17
M  V30 17 2 16 18
M  V30 18 1 16 19
M  V30 19 2 19 20
M  V30 20 1 19 21
M  V30 21 1 20 22
M  V30 22 1 20 23
M  V30 23 1 21 24
M  V30 24 2 21 25
M  V30 25 1 23 26
M  V30 26 2 23 27
M  V30 27 1 26 28
M  V30 28 2 28 29
M  V30 29 2 28 30
M  V30 30 1 28 31
M  V30 31 1 31 32
M  V30 32 1 32 33
M  V30 33 1 6 7
M  V30 34 1 12 13
M  V30 35 1 15 17
M  V30 36 1 25 27
M  V30 END BOND
M  V30 END CTAB
M  END
>  <Drug Name>
Vemurafenib

>  <Carbon Count>
23

>  <SMILES String>
FC(C(NS(=O)(CCC)=O)=CC=C1F)=C1C(C2=CNC(C2=C3)=NC=C3C4=CC=C(Cl)C=C4)=O

$$$$
Vemurafenib
Actelion Java MolfileCreator 2.0

  0  0  0  0  0  0              0 V3000
M  V30 BEGIN CTAB
M  V30 COUNTS 33 36 0 0 0
M  V30 BEGIN ATOM
M  V30 1 Cl 4.6951 12.9919 0.0 0
M  V30 2 C 5.6988 11.8772 0.0 0
M  V30 3 C 7.166 12.1891 0.0 0
M  V30 4 C 5.2352 10.4506 0.0 0
M  V30 5 C 8.1697 11.0744 0.0 0
M  V30 6 C 6.2389 9.3359 0.0 0
M  V30 7 C 7.7062 9.6478 0.0 0
M  V30 8 C 8.7098 8.533 0.0 0
M  V30 9 C 10.1771 8.8449 0.0 0
M  V30 10 C 8.2463 7.1065 0.0 0
M  V30 11 N 11.1808 7.7302 0.0 0
M  V30 12 C 9.25 5.9917 0.0 0
M  V30 13 C 10.7172 6.3036 0.0 0
M  V30 14 C 9.0932 4.5 0.0 0
M  V30 15 N 11.4672 5.0046 0.0 0
M  V30 16 C 7.7942 3.75 0.0 0
M  V30 17 C 10.4635 3.8898 0.0 0
M  V30 18 O 6.4951 4.5 0.0 0
M  V30 19 C 7.7942 2.25 0.0 0
M  V30 20 C 6.4951 1.5 0.0 0
M  V30 21 C 9.0932 1.5 0.0 0
M  V30 22 F 5.1961 2.25 0.0 0
M  V30 23 C 6.4951 0.0 0.0 0
M  V30 24 F 10.3923 2.25 0.0 0
M  V30 25 C 9.0932 0.0 0.0 0
M  V30 26 N 5.1961 -0.75 0.0 0
M  V30 27 C 7.7942 -0.75 0.0 0
M  V30 28 S 5.1961 -2.25 0.0 0
M  V30 29 O 6.6961 -2.2499 0.0 0
M  V30 30 O 5.9461 -3.549 0.0 0
M  V30 31 C 3.8971 -3.0 0.0 0
M  V30 32 C 3.8971 -4.5 0.0 0
M  V30 33 C 2.598 -5.25 0.0 0
M  V30 END ATOM
M  V30 BEGIN BOND
M  V30 1 1 1 2
M  V30 2 2 2 3
M  V30 3 1 2 4
M  V30 4 1 3 5
M  V30 5 2 4 6
M  V30 6 2 5 7
M  V30 7 1 7 8
M  V30 8 2 8 9
M  V30 9 1 8 10
M  V30 10 1 9 11
M  V30 11 2 10 12
M  V30 12 2 11 13
M  V30 13 1 12 14
M  V30 14 1 13 15
M  V30 15 1 14 16
M  V30 16 2 14 17
M  V30 17 2 16 18
M  V30 18 1 16 19
M  V30 19 2 19 20
M  V30 20 1 19 21
M  V30 21 1 20 22
M  V30 22 1 20 23
M  V30 23 1 21 24
M  V30 24 2 21 25
M  V30 25 1 23 26
M  V30 26 2 23 27
M  V30 27 1 26 28
M  V30 28 2 28 29
M  V30 29 2 28 30
M  V30 30 1 28 31
M  V30 31 1 31 32
M  V30 32 1 32 33
M  V30 33 1 6 7
M  V30 34 1 12 13
M  V30 35 1 15 17
M  V30 36 1 25 27
M  V30 END BOND
M  V30 END CTAB
M  END
>  <Drug Name>
Vemurafenib

>  <Carbon Count>
23

>  <SMILES String>
FC(C(NS(=O)(CCC)=O)=CC=C1F)=C1C(C2=CNC(C2=C3)=NC=C3C4=CC=C(Cl)C=C4)=O

$$$$
Vemurafenib
Actelion Java MolfileCreator 2.0

  0  0  0  0  0  0              0 V3000
M  V30 BEGIN CTAB
M  V30 COUNTS 33 36 0 0 0
M  V30 BEGIN ATOM
M  V30 1 Cl 4.6951 12.9919 0.0 0
M  V30 2 C 5.6988 11.8772 0.0 0
M  V30 3 C 7.166 12.1891 0.0 0
M  V30 4 C 5.2352 10.4506 0.0 0
M  V30 5 C 8.1697 11.0744 0.0 0
M  V30 6 C 6.2389 9.3359 0.0 0
M  V30 7 C 7.7062 9.6478 0.0 0
M  V30 8 C 8.7098 8.533 0.0 0
M  V30 9 C 10.1771 8.8449 0.0 0
M  V30 10 C 8.2463 7.1065 0.0 0
M  V30 11 N 11.1808 7.7302 0.0 0
M  V30 12 C 9.25 5.9917 0.0 0
M  V30 13 C 10.7172 6.3036 0.0 0
M  V30 14 C 9.0932 4.5 0.0 0
M  V30 15 N 11.4672 5.0046 0.0 0
M  V30 16 C 7.7942 3.75 0.0 0
M  V30 17 C 10.4635 3.8898 0.0 0
M  V30 18 O 6.4951 4.5 0.0 0
M  V30 19 C 7.7942 2.25 0.0 0
M  V30 20 C 6.4951 1.5 0.0 0
M  V30 21 C 9.0932 1.5 0.0 0
M  V30 22 F 5.1961 2.25 0.0 0
M  V30 23 C 6.4951 0.0 0.0 0
M  V30 24 F 10.3923 2.25 0.0 0
M  V30 25 C 9.0932 0.0 0.0 0
M  V30 26 N 5.1961 -0.75 0.0 0
M  V30 27 C 7.7942 -0.75 0.0 0
M  V30 28 S 5.1961 -2.25 0.0 0
M  V30 29 O 6.6961 -2.2499 0.0 0
M  V30 30 O 5.9461 -3.549 0.0 0
M  V30 31 C 3.8971 -3.0 0.0 0
M  V30 32 C 3.8971 -4.5 0.0 0
M  V30 33 C 2.598 -5.25 0.0 0
M  V30 END ATOM
M  V30 BEGIN BOND
M  V30 1 1 1 2
M  V30 2 2 2 3
M  V30 3 1 2 4
M  V30 4 1 3 5
M  V30 5 2 4 6
M  V30 6 2 5 7
M  V30 7 1 7 8
M  V30 8 2 8 9
M  V30 9 1 8 10
M  V30 10 1 9 11
M  V30 11 2 10 12
M  V30 12 2 11 13
M  V30 13 1 12 14
M  V30 14 1 13 15
M  V30 15 1 14 16
M  V30 16 2 14 17
M  V30 17 2 16 18
M  V30 18 1 16 19
M  V30 19 2 19 20
M  V30 20 1 19 21
M  V30 21 1 20 22
M  V30 22 1 20 23
M  V30 23 1 21 24
M  V30 24 2 21 25
M  V30 25 1 23 26
M  V30 26 2 23 27
M  V30 27 1 26 28
M  V30 28 2 28 29
M  V30 29 2 28 30
M  V30 30 1 28 31
M  V30 31 1 31 32
M  V30 32 1 32 33
M  V30 33 1 6 7
M  V30 34 1 12 13
M  V30 35 1 15 17
M  V30 36 1 25 27
M  V30 END BOND
M  V30 END CTAB
M  END
>  <Drug Name>
Vemurafenib

>  <Carbon Count>
23

>  <SMILES String>
FC(C(NS(=O)(CCC)=O)=CC=C1F)=C1C(C2=CNC(C2=C3)=NC=C3C4=CC=C(Cl)C=C4)=O

$$$$
Verapamil
Actelion Java MolfileCreator 2.0

  0  0  0  0  0  0              0 V3000
M  V30 BEGIN CTAB
M  V30 COUNTS 33 34 0 0 0
M  V30 BEGIN ATOM
M  V30 1 O -1.732 -3.4999 0.0 0
M  V30 2 C -0.866 -2.9999 0.0 0
M  V30 3 C -1.732 -4.4999 0.0 0
M  V30 4 C 0.0 -3.5 0.0 0
M  V30 5 C -0.866 -1.9999 0.0 0
M  V30 6 O 0.0 -4.5 0.0 0
M  V30 7 C 0.866 -3.0 0.0 0
M  V30 8 C 0.0 -1.5 0.0 0
M  V30 9 C 0.866 -5.0 0.0 0
M  V30 10 C 0.866 -2.0 0.0 0
M  V30 11 C 0.0 -0.5 0.0 0 CFG=1
M  V30 12 C 0.866 -1.0 0.0 0
M  V30 13 C -0.866 0.0 0.0 0
M  V30 14 C 0.866 0.0 0.0 0
M  V30 15 N 1.732 -1.5 0.0 0
M  V30 16 C -1.732 -0.4999 0.0 0
M  V30 17 C -0.866 1.0 0.0 0
M  V30 18 C 1.732 -0.5 0.0 0
M  V30 19 C 2.598 0.0 0.0 0
M  V30 20 N 3.4641 -0.5 0.0 0
M  V30 21 C 4.3301 0.0 0.0 0
M  V30 22 C 3.4641 -1.5 0.0 0
M  V30 23 C 5.1961 -0.5 0.0 0
M  V30 24 C 6.0621 0.0 0.0 0
M  V30 25 C 6.9282 -0.5 0.0 0
M  V30 26 C 6.0621 0.9999 0.0 0
M  V30 27 C 7.7942 0.0 0.0 0
M  V30 28 C 6.9282 1.4999 0.0 0
M  V30 29 O 8.6602 -0.5 0.0 0
M  V30 30 C 7.7942 0.9999 0.0 0
M  V30 31 C 9.5262 0.0 0.0 0
M  V30 32 O 8.6602 1.4999 0.0 0
M  V30 33 C 8.6602 2.4999 0.0 0
M  V30 END ATOM
M  V30 BEGIN BOND
M  V30 1 1 1 2
M  V30 2 1 1 3
M  V30 3 2 2 4
M  V30 4 1 2 5
M  V30 5 1 4 6
M  V30 6 1 4 7
M  V30 7 2 5 8
M  V30 8 1 6 9
M  V30 9 2 7 10
M  V30 10 1 8 11
M  V30 11 1 11 12 CFG=3
M  V30 12 1 11 13
M  V30 13 1 11 14
M  V30 14 3 12 15
M  V30 15 1 13 16
M  V30 16 1 13 17
M  V30 17 1 14 18
M  V30 18 1 18 19
M  V30 19 1 19 20
M  V30 20 1 20 21
M  V30 21 1 20 22
M  V30 22 1 21 23
M  V30 23 1 23 24
M  V30 24 2 24 25
M  V30 25 1 24 26
M  V30 26 1 25 27
M  V30 27 2 26 28
M  V30 28 1 27 29
M  V30 29 2 27 30
M  V30 30 1 29 31
M  V30 31 1 30 32
M  V30 32 1 32 33
M  V30 33 1 8 10
M  V30 34 1 28 30
M  V30 END BOND
M  V30 BEGIN COLLECTION
M  V30 MDLV30/STERAC1 ATOMS=(1 11)
M  V30 END COLLECTION
M  V30 END CTAB
M  END
>  <Drug Name>
Verapamil

>  <Carbon Count>
27

>  <SMILES String>
N#CC(CCCN(C)CCC1=CC(OC)=C(OC)C=C1)(C2=CC(OC)=C(OC)C=C2)C(C)C

$$$$
Lumacaftor
Actelion Java MolfileCreator 2.0

  0  0  0  0  0  0              0 V3000
M  V30 BEGIN CTAB
M  V30 COUNTS 33 37 0 0 0
M  V30 BEGIN ATOM
M  V30 1 F 7.6167 -6.9012 0.0 0
M  V30 2 C 7.2283 -5.4515 0.0 0
M  V30 3 F 8.678 -5.8399 0.0 0
M  V30 4 O 7.4631 -3.9692 0.0 0
M  V30 5 O 5.746 -5.6863 0.0 0
M  V30 6 C 6.1258 -3.2878 0.0 0
M  V30 7 C 5.0646 -4.349 0.0 0
M  V30 8 C 5.7374 -1.8381 0.0 0
M  V30 9 C 3.6149 -3.9606 0.0 0
M  V30 10 C 4.2877 -1.4496 0.0 0
M  V30 11 C 3.243 -2.5178 0.0 0
M  V30 12 C 3.8992 0.0 0.0 0
M  V30 13 C 2.5995 -0.7504 0.0 0
M  V30 14 C 4.6497 1.2997 0.0 0
M  V30 15 C 5.4001 0.0 0.0 0
M  V30 16 O 2.5663 -2.2375 0.0 0
M  V30 17 N 1.2997 0.0 0.0 0
M  V30 18 C 0.0 -0.7504 0.0 0
M  V30 19 N 0.0 -2.2512 0.0 0
M  V30 20 C -1.2997 0.0 0.0 0
M  V30 21 C -1.2997 -3.0016 0.0 0
M  V30 22 C -2.5995 -0.7504 0.0 0
M  V30 23 C -1.2997 -4.5025 0.0 0
M  V30 24 C -2.5995 -2.2512 0.0 0
M  V30 25 C -2.5995 -5.2529 0.0 0
M  V30 26 C 0.0 -5.2529 0.0 0
M  V30 27 C -3.8992 -3.0016 0.0 0
M  V30 28 C -2.5995 -6.7537 0.0 0
M  V30 29 C 0.0 -6.7537 0.0 0
M  V30 30 C -3.8992 -7.5041 0.0 0
M  V30 31 C -1.2997 -7.5041 0.0 0
M  V30 32 O -5.199 -6.7537 0.0 0
M  V30 33 O -3.8992 -9.005 0.0 0
M  V30 END ATOM
M  V30 BEGIN BOND
M  V30 1 1 1 2
M  V30 2 1 2 3
M  V30 3 1 2 4
M  V30 4 1 2 5
M  V30 5 1 4 6
M  V30 6 1 5 7
M  V30 7 1 6 8
M  V30 8 1 7 9
M  V30 9 2 8 10
M  V30 10 2 9 11
M  V30 11 1 10 12
M  V30 12 1 12 13
M  V30 13 1 12 14
M  V30 14 1 12 15
M  V30 15 2 13 16
M  V30 16 1 13 17
M  V30 17 1 17 18
M  V30 18 2 18 19
M  V30 19 1 18 20
M  V30 20 1 19 21
M  V30 21 2 20 22
M  V30 22 1 21 23
M  V30 23 2 21 24
M  V30 24 2 23 25
M  V30 25 1 23 26
M  V30 26 1 24 27
M  V30 27 1 25 28
M  V30 28 2 26 29
M  V30 29 1 28 30
M  V30 30 2 28 31
M  V30 31 2 30 32
M  V30 32 1 30 33
M  V30 33 2 6 7
M  V30 34 1 10 11
M  V30 35 1 14 15
M  V30 36 1 22 24
M  V30 37 1 29 31
M  V30 END BOND
M  V30 END CTAB
M  END
>  <Drug Name>
Lumacaftor

>  <Carbon Count>
24

>  <SMILES String>
O=C(O)C1=CC=CC(C2=NC(NC(C3(C4=CC=C(OC(F)(F)O5)C5=C4)CC3)=O)=CC=C2C)=C1

$$$$
Candesartan
Actelion Java MolfileCreator 2.0

  0  0  0  0  0  0              0 V3000
M  V30 BEGIN CTAB
M  V30 COUNTS 33 37 0 0 0
M  V30 BEGIN ATOM
M  V30 1 O 4.1807 3.8005 0.0 0
M  V30 2 C 3.6807 2.9344 0.0 0
M  V30 3 O 2.6807 2.9344 0.0 0
M  V30 4 C 4.1807 2.0684 0.0 0
M  V30 5 C 3.6807 1.2024 0.0 0
M  V30 6 C 5.1807 2.0684 0.0 0
M  V30 7 N 2.7026 0.9945 0.0 0
M  V30 8 C 4.1807 0.3364 0.0 0
M  V30 9 C 5.6807 1.2024 0.0 0
M  V30 10 C 2.598 0.0 0.0 0
M  V30 11 C 1.9594 1.6636 0.0 0
M  V30 12 N 3.5116 -0.4067 0.0 0
M  V30 13 C 5.1807 0.3364 0.0 0
M  V30 14 O 1.732 -0.5 0.0 0
M  V30 15 C 1.0084 1.3546 0.0 0
M  V30 16 C 1.732 -1.5 0.0 0
M  V30 17 C 0.2652 2.0237 0.0 0
M  V30 18 C 0.8004 0.3764 0.0 0
M  V30 19 C 0.866 -2.0 0.0 0
M  V30 20 C -0.6857 1.7147 0.0 0
M  V30 21 C -0.1505 0.0674 0.0 0
M  V30 22 C -0.8937 0.7366 0.0 0
M  V30 23 C -1.8447 0.4275 0.0 0
M  V30 24 C -2.5879 1.0967 0.0 0
M  V30 25 C -2.0526 -0.5505 0.0 0
M  V30 26 C -2.3799 2.0748 0.0 0
M  V30 27 C -3.5389 0.7876 0.0 0
M  V30 28 C -3.0037 -0.8595 0.0 0
M  V30 29 N -1.4664 2.4815 0.0 0
M  V30 30 N -3.0491 2.818 0.0 0
M  V30 31 C -3.7468 -0.1904 0.0 0
M  V30 32 N -1.5709 3.4761 0.0 0
M  V30 33 N -2.5491 3.684 0.0 0
M  V30 END ATOM
M  V30 BEGIN BOND
M  V30 1 2 1 2
M  V30 2 1 2 3
M  V30 3 1 2 4
M  V30 4 2 4 5
M  V30 5 1 4 6
M  V30 6 1 5 7
M  V30 7 1 5 8
M  V30 8 2 6 9
M  V30 9 1 7 10
M  V30 10 1 7 11
M  V30 11 1 8 12
M  V30 12 2 8 13
M  V30 13 1 10 14
M  V30 14 1 11 15
M  V30 15 1 14 16
M  V30 16 2 15 17
M  V30 17 1 15 18
M  V30 18 1 16 19
M  V30 19 1 17 20
M  V30 20 2 18 21
M  V30 21 2 20 22
M  V30 22 1 22 23
M  V30 23 2 23 24
M  V30 24 1 23 25
M  V30 25 1 24 26
M  V30 26 1 24 27
M  V30 27 2 25 28
M  V30 28 2 26 29
M  V30 29 1 26 30
M  V30 30 2 27 31
M  V30 31 1 29 32
M  V30 32 1 30 33
M  V30 33 1 9 13
M  V30 34 2 10 12
M  V30 35 1 21 22
M  V30 36 1 28 31
M  V30 37 2 32 33
M  V30 END BOND
M  V30 END CTAB
M  END
>  <Drug Name>
Candesartan

>  <Carbon Count>
24

>  <SMILES String>
CCOC(N1CC2=CC=C(C=C2)C3=CC=CC=C3C4=NN=NN4)=NC5=C1C(C(O)=O)=CC=C5

$$$$

Actelion Java MolfileCreator 2.0

  0  0  0  0  0  0              0 V3000
M  V30 BEGIN CTAB
M  V30 COUNTS 0 0 0 0 0
M  V30 BEGIN ATOM
M  V30 END ATOM
M  V30 BEGIN BOND
M  V30 END BOND
M  V30 END CTAB
M  END
>  <Drug Name>
Amethopterin (Methotrexate)

>  <Carbon Count>
20

>  <SMILES String>
NC1=C2C(N=CC(CN(C)C3=CC=C(C(N[C@H](C(O)=O)CCC(O)=O)=O)C=C3)=N2)=NC(N)=N1

$$$$

Actelion Java MolfileCreator 2.0

  0  0  0  0  0  0              0 V3000
M  V30 BEGIN CTAB
M  V30 COUNTS 0 0 0 0 0
M  V30 BEGIN ATOM
M  V30 END ATOM
M  V30 BEGIN BOND
M  V30 END BOND
M  V30 END CTAB
M  END
>  <Drug Name>
Amethopterin (Methotrexate)

>  <Carbon Count>
20

>  <SMILES String>
NC1=C2C(N=CC(CN(C)C3=CC=C(C(N[C@H](C(O)=O)CCC(O)=O)=O)C=C3)=N2)=NC(N)=N1

$$$$
Repaglinide
Actelion Java MolfileCreator 2.0

  0  0  0  0  0  0              0 V3000
M  V30 BEGIN CTAB
M  V30 COUNTS 33 35 0 0 0
M  V30 BEGIN ATOM
M  V30 1 O 9.5262 0.9999 0.0 0
M  V30 2 C 8.6602 1.4999 0.0 0
M  V30 3 O 8.6602 2.4999 0.0 0
M  V30 4 C 7.7942 0.9999 0.0 0
M  V30 5 C 6.9282 1.4999 0.0 0
M  V30 6 C 7.7942 0.0 0.0 0
M  V30 7 O 6.9282 2.4999 0.0 0
M  V30 8 C 6.0621 0.9999 0.0 0
M  V30 9 C 6.9282 -0.5 0.0 0
M  V30 10 C 7.7942 2.9999 0.0 0
M  V30 11 C 6.0621 0.0 0.0 0
M  V30 12 C 7.7942 3.9999 0.0 0
M  V30 13 C 5.1961 -0.5 0.0 0
M  V30 14 C 4.3301 0.0 0.0 0
M  V30 15 O 4.3301 1.0 0.0 0
M  V30 16 N 3.4641 -0.5 0.0 0
M  V30 17 C 2.598 0.0 0.0 0 CFG=2
M  V30 18 C 2.598 1.0 0.0 0
M  V30 19 C 1.732 -0.5 0.0 0
M  V30 20 C 1.732 1.4999 0.0 0
M  V30 21 C 3.4641 1.5 0.0 0
M  V30 22 C 1.732 -1.5 0.0 0
M  V30 23 N 0.866 0.9999 0.0 0
M  V30 24 C 1.732 2.4999 0.0 0
M  V30 25 C 3.4641 2.5 0.0 0
M  V30 26 C 2.598 -2.0 0.0 0
M  V30 27 C 0.866 -2.0 0.0 0
M  V30 28 C 0.866 0.0 0.0 0
M  V30 29 C 0.0 1.4999 0.0 0
M  V30 30 C 2.598 3.0 0.0 0
M  V30 31 C 0.0 -0.5 0.0 0
M  V30 32 C -0.866 0.9999 0.0 0
M  V30 33 C -0.866 0.0 0.0 0
M  V30 END ATOM
M  V30 BEGIN BOND
M  V30 1 2 1 2
M  V30 2 1 2 3
M  V30 3 1 2 4
M  V30 4 2 4 5
M  V30 5 1 4 6
M  V30 6 1 5 7
M  V30 7 1 5 8
M  V30 8 2 6 9
M  V30 9 1 7 10
M  V30 10 2 8 11
M  V30 11 1 10 12
M  V30 12 1 11 13
M  V30 13 1 13 14
M  V30 14 2 14 15
M  V30 15 1 14 16
M  V30 16 1 17 16 CFG=1
M  V30 17 1 17 18
M  V30 18 1 17 19
M  V30 19 2 18 20
M  V30 20 1 18 21
M  V30 21 1 19 22
M  V30 22 1 20 23
M  V30 23 1 20 24
M  V30 24 2 21 25
M  V30 25 1 22 26
M  V30 26 1 22 27
M  V30 27 1 23 28
M  V30 28 1 23 29
M  V30 29 2 24 30
M  V30 30 1 28 31
M  V30 31 1 29 32
M  V30 32 1 31 33
M  V30 33 1 9 11
M  V30 34 1 25 30
M  V30 35 1 32 33
M  V30 END BOND
M  V30 BEGIN COLLECTION
M  V30 MDLV30/STEABS ATOMS=(1 17)
M  V30 END COLLECTION
M  V30 END CTAB
M  END
>  <Drug Name>
Repaglinide

>  <Carbon Count>
27

>  <SMILES String>
CCOC1=C(C(O)=O)C=CC(CC(N[C@H](C2=CC=CC=C2N3CCCCC3)CC(C)C)=O)=C1

$$$$
Tenofovir Alafenamide
Actelion Java MolfileCreator 2.0

  0  0  0  0  0  0              0 V3000
M  V30 BEGIN CTAB
M  V30 COUNTS 33 35 0 0 0
M  V30 BEGIN ATOM
M  V30 1 P 5.1961 -0.5 0.0 0 CFG=2
M  V30 2 O 6.0621 -1.0 0.0 0
M  V30 3 O 5.1961 -1.4999 0.0 0
M  V30 4 N 4.3301 0.0 0.0 0
M  V30 5 C 6.0621 0.0 0.0 0
M  V30 6 C 6.0621 -2.0 0.0 0
M  V30 7 C 3.4641 -0.5 0.0 0 CFG=1
M  V30 8 O 6.9282 -0.5 0.0 0
M  V30 9 C 6.9282 -1.5 0.0 0
M  V30 10 C 6.0621 -3.0 0.0 0
M  V30 11 C 2.598 0.0 0.0 0
M  V30 12 C 3.4641 -1.5 0.0 0
M  V30 13 C 7.7942 0.0 0.0 0 CFG=2
M  V30 14 C 7.7942 -2.0 0.0 0
M  V30 15 C 6.9282 -3.5 0.0 0
M  V30 16 O 2.598 1.0 0.0 0
M  V30 17 O 1.732 -0.5 0.0 0
M  V30 18 C 8.6602 -0.5 0.0 0
M  V30 19 C 7.7942 0.9999 0.0 0
M  V30 20 C 7.7942 -3.0 0.0 0
M  V30 21 C 0.866 0.0 0.0 0
M  V30 22 N 9.5262 0.0 0.0 0
M  V30 23 C 0.866 1.0 0.0 0
M  V30 24 C 0.0 -0.5 0.0 0
M  V30 25 C 10.4398 -0.4067 0.0 0
M  V30 26 C 9.6308 0.9945 0.0 0
M  V30 27 N 10.7488 -1.3577 0.0 0
M  V30 28 C 11.1089 0.3364 0.0 0
M  V30 29 N 10.6089 1.2024 0.0 0
M  V30 30 C 11.7269 -1.5657 0.0 0
M  V30 31 C 12.0871 0.1284 0.0 0
M  V30 32 N 12.3961 -0.8225 0.0 0
M  V30 33 N 12.7562 0.8716 0.0 0
M  V30 END ATOM
M  V30 BEGIN BOND
M  V30 1 2 1 2
M  V30 2 1 1 3 CFG=1
M  V30 3 1 1 4
M  V30 4 1 1 5
M  V30 5 1 3 6
M  V30 6 1 4 7
M  V30 7 1 5 8
M  V30 8 2 6 9
M  V30 9 1 6 10
M  V30 10 1 7 11
M  V30 11 1 7 12 CFG=3
M  V30 12 1 8 13
M  V30 13 1 9 14
M  V30 14 2 10 15
M  V30 15 2 11 16
M  V30 16 1 11 17
M  V30 17 1 13 18
M  V30 18 1 13 19 CFG=1
M  V30 19 2 14 20
M  V30 20 1 17 21
M  V30 21 1 18 22
M  V30 22 1 21 23
M  V30 23 1 21 24
M  V30 24 1 22 25
M  V30 25 1 22 26
M  V30 26 2 25 27
M  V30 27 1 25 28
M  V30 28 2 26 29
M  V30 29 1 27 30
M  V30 30 2 28 31
M  V30 31 2 30 32
M  V30 32 1 31 33
M  V30 33 1 15 20
M  V30 34 1 28 29
M  V30 35 1 31 32
M  V30 END BOND
M  V30 BEGIN COLLECTION
M  V30 MDLV30/STERAC1 ATOMS=(3 1 7 13)
M  V30 END COLLECTION
M  V30 END CTAB
M  END
>  <Drug Name>
Tenofovir Alafenamide

>  <Carbon Count>
21

>  <SMILES String>
C[C@H](N[P@@](OC1=CC=CC=C1)(CO[C@H](C)CN2C=NC3=C(N)N=CN=C23)=O)C(OC(C)C)=O

$$$$
Gentamicin
Actelion Java MolfileCreator 2.0

  0  0  0  0  0  0              0 V3000
M  V30 BEGIN CTAB
M  V30 COUNTS 33 35 0 0 0
M  V30 BEGIN ATOM
M  V30 1 O 6.4951 1.5 0.0 0
M  V30 2 C 6.4951 0.0 0.0 0
M  V30 3 C 5.1961 2.25 0.0 0
M  V30 4 O 7.7942 -0.75 0.0 0
M  V30 5 C 5.1961 -0.75 0.0 0
M  V30 6 C 5.1961 3.75 0.0 0
M  V30 7 C 3.8971 1.5 0.0 0
M  V30 8 C 9.0932 0.0 0.0 0
M  V30 9 N 5.1961 -2.25 0.0 0
M  V30 10 C 3.8971 0.0 0.0 0
M  V30 11 N 3.8971 4.5 0.0 0
M  V30 12 C 6.4951 4.5 0.0 0
M  V30 13 C 10.3923 -0.75 0.0 0
M  V30 14 C 9.0932 1.5 0.0 0
M  V30 15 C 3.8971 6.0 0.0 0
M  V30 16 O 10.3923 -2.25 0.0 0
M  V30 17 C 11.6913 0.0 0.0 0
M  V30 18 N 7.7942 2.25 0.0 0
M  V30 19 C 10.3923 2.25 0.0 0
M  V30 20 O 12.9903 -0.75 0.0 0
M  V30 21 C 11.6913 1.5 0.0 0
M  V30 22 C 14.2894 0.0 0.0 0
M  V30 23 N 12.9903 2.25 0.0 0
M  V30 24 O 14.2894 1.5 0.0 0
M  V30 25 C 15.5884 -0.75 0.0 0
M  V30 26 C 15.5884 2.25 0.0 0
M  V30 27 O 15.5884 -2.25 0.0 0
M  V30 28 C 16.8875 0.0 0.0 0
M  V30 29 C 16.8875 1.5 0.0 0
M  V30 30 N 18.1865 -0.75 0.0 0
M  V30 31 O 17.6374 2.799 0.0 0
M  V30 32 C 18.3874 1.4999 0.0 0
M  V30 33 C 18.1865 -2.25 0.0 0
M  V30 END ATOM
M  V30 BEGIN BOND
M  V30 1 1 1 2
M  V30 2 1 1 3
M  V30 3 1 2 4
M  V30 4 1 2 5
M  V30 5 1 3 6
M  V30 6 1 3 7
M  V30 7 1 4 8
M  V30 8 1 5 9
M  V30 9 1 5 10
M  V30 10 1 6 11
M  V30 11 1 6 12
M  V30 12 1 8 13
M  V30 13 1 8 14
M  V30 14 1 11 15
M  V30 15 1 13 16
M  V30 16 1 13 17
M  V30 17 1 14 18
M  V30 18 1 14 19
M  V30 19 1 17 20
M  V30 20 1 17 21
M  V30 21 1 20 22
M  V30 22 1 21 23
M  V30 23 1 22 24
M  V30 24 1 22 25
M  V30 25 1 24 26
M  V30 26 1 25 27
M  V30 27 1 25 28
M  V30 28 1 26 29
M  V30 29 1 28 30
M  V30 30 1 29 31
M  V30 31 1 29 32
M  V30 32 1 30 33
M  V30 33 1 7 10
M  V30 34 1 19 21
M  V30 35 1 28 29
M  V30 END BOND
M  V30 END CTAB
M  END
>  <Drug Name>
Gentamicin

>  <Carbon Count>
21

>  <SMILES String>
O[C@]3(C)[C@H](NC)[C@@H](O)[C@@H](O[C@H]2[C@H](N)C[C@H](N)[C@@H](O[C@H]1O[C@H](C(NC)C)CC[C@H]1N)[C@@H]2O)OC3

$$$$
Glyburide
Actelion Java MolfileCreator 2.0

  0  0  0  0  0  0              0 V3000
M  V30 BEGIN CTAB
M  V30 COUNTS 33 35 0 0 0
M  V30 BEGIN ATOM
M  V30 1 Cl 7.7942 3.75 0.0 0
M  V30 2 C 7.7942 2.25 0.0 0
M  V30 3 C 6.4951 1.5 0.0 0
M  V30 4 C 9.0932 1.5 0.0 0
M  V30 5 C 6.4951 0.0 0.0 0
M  V30 6 C 9.0932 0.0 0.0 0
M  V30 7 C 7.7942 -0.75 0.0 0
M  V30 8 C 5.1961 -0.75 0.0 0
M  V30 9 O 7.7942 -2.25 0.0 0
M  V30 10 O 5.1961 -2.25 0.0 0
M  V30 11 N 3.8971 0.0 0.0 0
M  V30 12 C 9.0932 -3.0 0.0 0
M  V30 13 C 2.598 -0.75 0.0 0
M  V30 14 C 1.299 0.0 0.0 0
M  V30 15 C 0.0 -0.75 0.0 0
M  V30 16 C -1.299 0.0 0.0 0
M  V30 17 C 0.0 -2.25 0.0 0
M  V30 18 C -2.598 -0.75 0.0 0
M  V30 19 C -1.299 -3.0 0.0 0
M  V30 20 C -2.598 -2.25 0.0 0
M  V30 21 S -3.8971 -3.0 0.0 0
M  V30 22 O -4.6471 -4.299 0.0 0
M  V30 23 O -3.1471 -4.299 0.0 0
M  V30 24 N -5.1961 -2.25 0.0 0
M  V30 25 C -6.4951 -3.0 0.0 0
M  V30 26 O -6.4951 -4.5 0.0 0
M  V30 27 N -7.7942 -2.25 0.0 0
M  V30 28 C -9.0932 -3.0 0.0 0
M  V30 29 C -10.3923 -2.25 0.0 0
M  V30 30 C -9.0932 -4.5 0.0 0
M  V30 31 C -11.6913 -3.0 0.0 0
M  V30 32 C -10.3923 -5.25 0.0 0
M  V30 33 C -11.6913 -4.5 0.0 0
M  V30 END ATOM
M  V30 BEGIN BOND
M  V30 1 1 1 2
M  V30 2 2 2 3
M  V30 3 1 2 4
M  V30 4 1 3 5
M  V30 5 2 4 6
M  V30 6 2 5 7
M  V30 7 1 5 8
M  V30 8 1 7 9
M  V30 9 2 8 10
M  V30 10 1 8 11
M  V30 11 1 9 12
M  V30 12 1 11 13
M  V30 13 1 13 14
M  V30 14 1 14 15
M  V30 15 2 15 16
M  V30 16 1 15 17
M  V30 17 1 16 18
M  V30 18 2 17 19
M  V30 19 2 18 20
M  V30 20 1 20 21
M  V30 21 2 21 22
M  V30 22 2 21 23
M  V30 23 1 21 24
M  V30 24 1 24 25
M  V30 25 2 25 26
M  V30 26 1 25 27
M  V30 27 1 27 28
M  V30 28 1 28 29
M  V30 29 1 28 30
M  V30 30 1 29 31
M  V30 31 1 30 32
M  V30 32 1 31 33
M  V30 33 1 6 7
M  V30 34 1 19 20
M  V30 35 1 32 33
M  V30 END BOND
M  V30 END CTAB
M  END
>  <Drug Name>
Glyburide

>  <Carbon Count>
23

>  <SMILES String>
O=C(NS(=O)(C1=CC=C(CCNC(C2=C(OC)C=CC(Cl)=C2)=O)C=C1)=O)NC3CCCCC3

$$$$
Buprenorphine
Actelion Java MolfileCreator 2.0

  0  0  0  0  0  0              0 V3000
M  V30 BEGIN CTAB
M  V30 COUNTS 34 40 0 0 0
M  V30 BEGIN ATOM
M  V30 1 O 5.0029 -0.9999 0.0 0
M  V30 2 C 4.4151 -0.1909 0.0 0
M  V30 3 C 4.4151 -1.809 0.0 0 CFG=1
M  V30 4 C 4.4756 0.8394 0.0 0
M  V30 5 C 3.5059 -0.36 0.0 0
M  V30 6 C 4.4756 -2.8394 0.0 0 CFG=2
M  V30 7 C 3.4641 -1.4999 0.0 0 CFG=2
M  V30 8 O 5.3796 1.267 0.0 0
M  V30 9 C 3.6666 1.4272 0.0 0
M  V30 10 C 2.5857 -0.1393 0.0 0
M  V30 11 O 5.3796 -3.267 0.0 0
M  V30 12 C 3.7751 -3.5099 0.0 0 CFG=1
M  V30 13 C 3.4166 -3.4272 0.0 0
M  V30 14 C 2.598 -2.0 0.0 0 CFG=1
M  V30 15 C 3.5862 -0.6758 0.0 0
M  V30 16 C 2.7531 1.0204 0.0 0
M  V30 17 C 1.6218 -0.6226 0.0 0
M  V30 18 C 6.2019 -2.698 0.0 0
M  V30 19 C 3.7711 -4.4217 0.0 0 CFG=2
M  V30 20 C 2.8561 -2.9295 0.0 0
M  V30 21 C 2.5031 -3.0204 0.0 0
M  V30 22 C 1.732 -1.4999 0.0 0 CFG=1
M  V30 23 C 2.8279 0.0947 0.0 0
M  V30 24 O 4.7656 -4.3171 0.0 0
M  V30 25 C 2.9621 -5.0095 0.0 0
M  V30 26 C 4.3589 -5.2307 0.0 0
M  V30 27 N 1.7267 -0.3416 0.0 0
M  V30 28 C 2.3743 -4.2004 0.0 0
M  V30 29 C 2.1531 -5.5973 0.0 0
M  V30 30 C 3.5499 -5.8185 0.0 0
M  V30 31 C 0.866 0.0 0.0 0
M  V30 32 C 0.0 -0.5 0.0 0
M  V30 33 C -1.0 -0.4999 0.0 0
M  V30 34 C -0.5 -1.366 0.0 0
M  V30 END ATOM
M  V30 BEGIN BOND
M  V30 1 1 1 2
M  V30 2 1 3 1 CFG=1
M  V30 3 2 2 4
M  V30 4 1 2 5
M  V30 5 1 3 6
M  V30 6 1 3 7
M  V30 7 1 4 8
M  V30 8 1 4 9
M  V30 9 2 5 10
M  V30 10 1 6 11 CFG=1
M  V30 11 1 6 12
M  V30 12 1 6 13
M  V30 13 1 7 14
M  V30 14 1 7 15 CFG=3
M  V30 15 2 9 16
M  V30 16 1 10 17
M  V30 17 1 11 18
M  V30 18 1 12 19
M  V30 19 1 12 20 CFG=1
M  V30 20 1 13 21
M  V30 21 1 14 22
M  V30 22 1 15 23
M  V30 23 1 19 24 CFG=3
M  V30 24 1 19 25
M  V30 25 1 19 26
M  V30 26 1 22 27 CFG=3
M  V30 27 1 25 28
M  V30 28 1 25 29
M  V30 29 1 25 30
M  V30 30 1 27 31
M  V30 31 1 31 32
M  V30 32 1 32 33
M  V30 33 1 32 34
M  V30 34 1 5 7
M  V30 35 1 10 16
M  V30 36 1 14 20 CFG=3
M  V30 37 1 14 21
M  V30 38 1 17 22
M  V30 39 1 23 27
M  V30 40 1 33 34
M  V30 END BOND
M  V30 BEGIN COLLECTION
M  V30 MDLV30/STEABS ATOMS=(7 3 6 7 12 14 19 22)
M  V30 END COLLECTION
M  V30 END CTAB
M  END
>  <Drug Name>
Buprenorphine

>  <Carbon Count>
29

>  <SMILES String>
CO[C@@]1(CC2)[C@H](OC3=C4O)[C@]5(C3=C(C=C4)C[C@H]6N(CC7CC7)CC5)[C@@]26C[C@@H]1C(C)(O)C(C)(C)C

$$$$
Glimepiride
Actelion Java MolfileCreator 2.0

  0  0  0  0  0  0              0 V3000
M  V30 BEGIN CTAB
M  V30 COUNTS 34 36 0 0 0
M  V30 BEGIN ATOM
M  V30 1 S 10.3923 2.25 0.0 0
M  V30 2 O 11.1423 3.549 0.0 0
M  V30 3 O 9.6423 3.549 0.0 0
M  V30 4 N 11.6913 1.5 0.0 0
M  V30 5 C 9.0932 1.5 0.0 0
M  V30 6 C 12.9903 2.25 0.0 0
M  V30 7 C 7.7942 2.25 0.0 0
M  V30 8 C 9.0932 0.0 0.0 0
M  V30 9 O 12.9903 3.75 0.0 0
M  V30 10 N 14.2894 1.5 0.0 0
M  V30 11 C 6.4951 1.5 0.0 0
M  V30 12 C 7.7942 -0.75 0.0 0
M  V30 13 C 15.5884 2.25 0.0 0 CFG=1
M  V30 14 C 6.4951 0.0 0.0 0
M  V30 15 C 16.8875 1.5 0.0 0
M  V30 16 C 15.5884 3.75 0.0 0
M  V30 17 C 5.1961 -0.75 0.0 0
M  V30 18 C 18.1865 2.25 0.0 0
M  V30 19 C 16.8875 4.5 0.0 0
M  V30 20 C 3.8971 0.0 0.0 0
M  V30 21 C 18.1865 3.75 0.0 0 CFG=1
M  V30 22 N 2.598 -0.75 0.0 0
M  V30 23 C 19.4855 4.5 0.0 0
M  V30 24 C 1.299 0.0 0.0 0
M  V30 25 O 1.299 1.5 0.0 0
M  V30 26 N 0.0 -0.75 0.0 0
M  V30 27 C -1.3703 -0.1398 0.0 0
M  V30 28 C -0.1567 -2.2417 0.0 0
M  V30 29 O -1.6821 1.3273 0.0 0
M  V30 30 C -2.374 -1.2546 0.0 0
M  V30 31 C -1.624 -2.5536 0.0 0
M  V30 32 C -3.8658 -1.0978 0.0 0
M  V30 33 C -2.2341 -3.9239 0.0 0
M  V30 34 C -4.7474 -2.3113 0.0 0
M  V30 END ATOM
M  V30 BEGIN BOND
M  V30 1 2 1 2
M  V30 2 2 1 3
M  V30 3 1 1 4
M  V30 4 1 1 5
M  V30 5 1 4 6
M  V30 6 2 5 7
M  V30 7 1 5 8
M  V30 8 1 6 9
M  V30 9 2 6 10 CFG=2
M  V30 10 1 7 11
M  V30 11 2 8 12
M  V30 12 1 13 10 CFG=3
M  V30 13 2 11 14
M  V30 14 1 13 15
M  V30 15 1 13 16
M  V30 16 1 14 17
M  V30 17 1 15 18
M  V30 18 1 16 19
M  V30 19 1 17 20
M  V30 20 1 18 21
M  V30 21 1 20 22
M  V30 22 1 21 23 CFG=1
M  V30 23 2 22 24 CFG=2
M  V30 24 1 24 25
M  V30 25 1 24 26
M  V30 26 1 26 27
M  V30 27 1 26 28
M  V30 28 2 27 29
M  V30 29 1 27 30
M  V30 30 1 28 31
M  V30 31 1 30 32
M  V30 32 1 31 33
M  V30 33 1 32 34
M  V30 34 1 12 14
M  V30 35 1 19 21
M  V30 36 2 30 31
M  V30 END BOND
M  V30 BEGIN COLLECTION
M  V30 MDLV30/STEABS ATOMS=(2 13 21)
M  V30 END COLLECTION
M  V30 END CTAB
M  END
>  <Drug Name>
Glimepiride

>  <Carbon Count>
24

>  <SMILES String>
O=C(NS(=O)(C1=CC=C(CCC(NN2C(C(CC)=C(C2)C)=O)=O)C=C1)=O)NC3CCC(CC3)C

$$$$
Leucovorin
Actelion Java MolfileCreator 2.0

  0  0  0  0  0  0              0 V3000
M  V30 BEGIN CTAB
M  V30 COUNTS 34 36 0 0 0
M  V30 BEGIN ATOM
M  V30 1 O 12.9903 0.0 0.0 0
M  V30 2 C 12.9903 0.9999 0.0 0
M  V30 3 N 13.8564 1.4999 0.0 0
M  V30 4 C 12.1243 1.4999 0.0 0
M  V30 5 C 13.8564 2.4999 0.0 0
M  V30 6 N 11.2583 0.9999 0.0 0
M  V30 7 C 12.1243 2.4999 0.0 0
M  V30 8 N 12.9903 2.9999 0.0 0
M  V30 9 N 14.7224 2.9999 0.0 0
M  V30 10 C 11.2583 0.0 0.0 0
M  V30 11 C 10.3923 1.4999 0.0 0
M  V30 12 N 11.2583 2.9999 0.0 0
M  V30 13 O 12.1243 -0.5 0.0 0
M  V30 14 C 10.3923 2.4999 0.0 0
M  V30 15 C 9.5262 0.9999 0.0 0
M  V30 16 N 8.6602 1.4999 0.0 0
M  V30 17 C 7.7942 0.9999 0.0 0
M  V30 18 C 6.9282 1.4999 0.0 0
M  V30 19 C 7.7942 0.0 0.0 0
M  V30 20 C 6.0621 0.9999 0.0 0
M  V30 21 C 6.9282 -0.5 0.0 0
M  V30 22 C 6.0621 0.0 0.0 0
M  V30 23 C 5.1961 -0.5 0.0 0
M  V30 24 O 5.1961 -1.4999 0.0 0
M  V30 25 N 4.3301 0.0 0.0 0
M  V30 26 C 3.4641 -0.5 0.0 0 CFG=2
M  V30 27 C 3.4641 -1.5 0.0 0
M  V30 28 C 2.598 0.0 0.0 0
M  V30 29 O 2.598 -1.9999 0.0 0
M  V30 30 O 4.3301 -2.0 0.0 0
M  V30 31 C 1.732 -0.5 0.0 0
M  V30 32 C 0.866 0.0 0.0 0
M  V30 33 O 0.866 1.0 0.0 0
M  V30 34 O 0.0 -0.5 0.0 0
M  V30 END ATOM
M  V30 BEGIN BOND
M  V30 1 2 1 2
M  V30 2 1 2 3
M  V30 3 1 2 4
M  V30 4 1 3 5
M  V30 5 1 4 6
M  V30 6 2 4 7
M  V30 7 2 5 8
M  V30 8 1 5 9
M  V30 9 1 6 10
M  V30 10 1 6 11
M  V30 11 1 7 12
M  V30 12 2 10 13
M  V30 13 1 11 14
M  V30 14 1 11 15
M  V30 15 1 15 16
M  V30 16 1 16 17
M  V30 17 2 17 18
M  V30 18 1 17 19
M  V30 19 1 18 20
M  V30 20 2 19 21
M  V30 21 2 20 22
M  V30 22 1 22 23
M  V30 23 2 23 24
M  V30 24 1 23 25
M  V30 25 1 26 25 CFG=3
M  V30 26 1 26 27
M  V30 27 1 26 28
M  V30 28 2 27 29
M  V30 29 1 27 30
M  V30 30 1 28 31
M  V30 31 1 31 32
M  V30 32 2 32 33
M  V30 33 1 32 34
M  V30 34 1 7 8
M  V30 35 1 12 14
M  V30 36 1 21 22
M  V30 END BOND
M  V30 BEGIN COLLECTION
M  V30 MDLV30/STERAC1 ATOMS=(1 26)
M  V30 END COLLECTION
M  V30 END CTAB
M  END
>  <Drug Name>
Leucovorin

>  <Carbon Count>
20

>  <SMILES String>
O=C(O)[C@@H](NC(=O)c1ccc(cc1)NCC3N(/C2=C(/N/C(=N\C2=O)N)NC3)C=O)CCC(=O)O

$$$$
Leucovorin
Actelion Java MolfileCreator 2.0

  0  0  0  0  0  0              0 V3000
M  V30 BEGIN CTAB
M  V30 COUNTS 34 36 0 0 0
M  V30 BEGIN ATOM
M  V30 1 O 12.9903 0.0 0.0 0
M  V30 2 C 12.9903 0.9999 0.0 0
M  V30 3 N 13.8564 1.4999 0.0 0
M  V30 4 C 12.1243 1.4999 0.0 0
M  V30 5 C 13.8564 2.4999 0.0 0
M  V30 6 N 11.2583 0.9999 0.0 0
M  V30 7 C 12.1243 2.4999 0.0 0
M  V30 8 N 12.9903 2.9999 0.0 0
M  V30 9 N 14.7224 2.9999 0.0 0
M  V30 10 C 11.2583 0.0 0.0 0
M  V30 11 C 10.3923 1.4999 0.0 0
M  V30 12 N 11.2583 2.9999 0.0 0
M  V30 13 O 12.1243 -0.5 0.0 0
M  V30 14 C 10.3923 2.4999 0.0 0
M  V30 15 C 9.5262 0.9999 0.0 0
M  V30 16 N 8.6602 1.4999 0.0 0
M  V30 17 C 7.7942 0.9999 0.0 0
M  V30 18 C 6.9282 1.4999 0.0 0
M  V30 19 C 7.7942 0.0 0.0 0
M  V30 20 C 6.0621 0.9999 0.0 0
M  V30 21 C 6.9282 -0.5 0.0 0
M  V30 22 C 6.0621 0.0 0.0 0
M  V30 23 C 5.1961 -0.5 0.0 0
M  V30 24 O 5.1961 -1.4999 0.0 0
M  V30 25 N 4.3301 0.0 0.0 0
M  V30 26 C 3.4641 -0.5 0.0 0 CFG=2
M  V30 27 C 3.4641 -1.5 0.0 0
M  V30 28 C 2.598 0.0 0.0 0
M  V30 29 O 2.598 -1.9999 0.0 0
M  V30 30 O 4.3301 -2.0 0.0 0
M  V30 31 C 1.732 -0.5 0.0 0
M  V30 32 C 0.866 0.0 0.0 0
M  V30 33 O 0.866 1.0 0.0 0
M  V30 34 O 0.0 -0.5 0.0 0
M  V30 END ATOM
M  V30 BEGIN BOND
M  V30 1 2 1 2
M  V30 2 1 2 3
M  V30 3 1 2 4
M  V30 4 1 3 5
M  V30 5 1 4 6
M  V30 6 2 4 7
M  V30 7 2 5 8
M  V30 8 1 5 9
M  V30 9 1 6 10
M  V30 10 1 6 11
M  V30 11 1 7 12
M  V30 12 2 10 13
M  V30 13 1 11 14
M  V30 14 1 11 15
M  V30 15 1 15 16
M  V30 16 1 16 17
M  V30 17 2 17 18
M  V30 18 1 17 19
M  V30 19 1 18 20
M  V30 20 2 19 21
M  V30 21 2 20 22
M  V30 22 1 22 23
M  V30 23 2 23 24
M  V30 24 1 23 25
M  V30 25 1 26 25 CFG=3
M  V30 26 1 26 27
M  V30 27 1 26 28
M  V30 28 2 27 29
M  V30 29 1 27 30
M  V30 30 1 28 31
M  V30 31 1 31 32
M  V30 32 2 32 33
M  V30 33 1 32 34
M  V30 34 1 7 8
M  V30 35 1 12 14
M  V30 36 1 21 22
M  V30 END BOND
M  V30 BEGIN COLLECTION
M  V30 MDLV30/STERAC1 ATOMS=(1 26)
M  V30 END COLLECTION
M  V30 END CTAB
M  END
>  <Drug Name>
Leucovorin

>  <Carbon Count>
20

>  <SMILES String>
NC(NC1=C2N(C=O)C(CNC3=CC=C(C(N[C@H](C(O)=O)CCC(O)=O)=O)C=C3)CN1)=NC2=O

$$$$
Fluticasone
Actelion Java MolfileCreator 2.0

  0  0  0  0  0  0              0 V3000
M  V30 BEGIN CTAB
M  V30 COUNTS 30 33 0 0 0
M  V30 BEGIN ATOM
M  V30 1 S 2.6008 -0.7507 0.0 0
M  V30 2 C 3.9012 0.0 0.0 0
M  V30 3 C 1.3004 0.0 0.0 0
M  V30 4 O 5.2016 -0.7507 0.0 0
M  V30 5 C 3.9012 1.5015 0.0 0 CFG=2
M  V30 6 F 0.0 -0.7507 0.0 0
M  V30 7 O 2.5633 0.8198 0.0 0
M  V30 8 C 5.116 2.3842 0.0 0 CFG=2
M  V30 9 C 2.6864 2.3842 0.0 0 CFG=1
M  V30 10 C 4.652 3.8123 0.0 0 CFG=1
M  V30 11 C 6.5848 2.072 0.0 0
M  V30 12 C 5.4282 0.9154 0.0 0
M  V30 13 C 3.1504 3.8123 0.0 0
M  V30 14 C 1.2583 1.9201 0.0 0
M  V30 15 C 5.6568 4.9282 0.0 0 CFG=1
M  V30 16 C 7.5896 3.1879 0.0 0 CFG=1
M  V30 17 C 7.1255 4.616 0.0 0 CFG=1
M  V30 18 C 5.1927 6.3563 0.0 0
M  V30 19 O 9.0583 2.8757 0.0 0
M  V30 20 F 8.7622 4.2198 0.0 0
M  V30 21 C 8.1303 5.7319 0.0 0 CFG=2
M  V30 22 C 6.1975 7.4722 0.0 0 CFG=1
M  V30 23 C 7.6663 7.16 0.0 0
M  V30 24 C 9.5991 5.4197 0.0 0
M  V30 25 C 8.2585 4.4716 0.0 0
M  V30 26 F 5.7335 8.9003 0.0 0
M  V30 27 C 8.671 8.2759 0.0 0
M  V30 28 C 10.6038 6.5356 0.0 0
M  V30 29 C 10.1398 7.9637 0.0 0
M  V30 30 O 11.1446 9.0796 0.0 0
M  V30 END ATOM
M  V30 BEGIN BOND
M  V30 1 1 1 2
M  V30 2 1 1 3
M  V30 3 2 2 4
M  V30 4 1 2 5
M  V30 5 1 3 6
M  V30 6 1 5 7 CFG=3
M  V30 7 1 5 8
M  V30 8 1 5 9
M  V30 9 1 8 10
M  V30 10 1 8 11
M  V30 11 1 8 12 CFG=1
M  V30 12 1 9 13
M  V30 13 1 9 14 CFG=3
M  V30 14 1 10 15
M  V30 15 1 11 16
M  V30 16 1 15 17
M  V30 17 1 15 18 CFG=3
M  V30 18 1 16 19 CFG=1
M  V30 19 1 17 20 CFG=3
M  V30 20 1 17 21
M  V30 21 1 18 22
M  V30 22 1 21 23
M  V30 23 1 21 24
M  V30 24 1 21 25 CFG=1
M  V30 25 1 22 26 CFG=3
M  V30 26 2 23 27
M  V30 27 2 24 28
M  V30 28 1 27 29
M  V30 29 2 29 30
M  V30 30 1 10 13 CFG=1
M  V30 31 1 16 17
M  V30 32 1 22 23
M  V30 33 1 28 29
M  V30 END BOND
M  V30 BEGIN COLLECTION
M  V30 MDLV30/STERAC1 ATOMS=(9 5 8 9 10 15 16 17 21 22)
M  V30 END COLLECTION
M  V30 END CTAB
M  END
>  <Drug Name>
Fluticasone

>  <Carbon Count>
25

>  <SMILES String>
C[C@@]12[C@@](C(SCF)=O)([C@@H](C[C@]1([C@@]3(C[C@@H](C4=CC(C=C[C@@]4([C@]3([C@H](C2)O)F)C)=O)F)[H])[H])C)OC(CC)=O

$$$$
Diphenoxylate
Actelion Java MolfileCreator 2.0

  0  0  0  0  0  0              0 V3000
M  V30 BEGIN CTAB
M  V30 COUNTS 34 37 0 0 0
M  V30 BEGIN ATOM
M  V30 1 O 5.0517 -1.0943 0.0 0
M  V30 2 C 3.9032 0.0 0.0 0
M  V30 3 O 2.6021 -0.7511 0.0 0
M  V30 4 C 3.9032 1.5023 0.0 0
M  V30 5 C 1.301 0.0 0.0 0
M  V30 6 C 5.2042 0.7511 0.0 0
M  V30 7 C 5.2042 2.2535 0.0 0
M  V30 8 C 2.6021 2.2535 0.0 0
M  V30 9 C 0.0 -0.7511 0.0 0
M  V30 10 C 5.3413 -0.6072 0.0 0
M  V30 11 C 6.5053 1.5023 0.0 0
M  V30 12 C 5.2042 3.7558 0.0 0
M  V30 13 C 2.6021 3.7558 0.0 0
M  V30 14 C 6.5053 -1.5023 0.0 0
M  V30 15 C 7.8064 0.7511 0.0 0
M  V30 16 N 3.9032 4.507 0.0 0
M  V30 17 C 7.8064 -0.7511 0.0 0
M  V30 18 C 3.9032 6.0093 0.0 0
M  V30 19 C 5.2042 6.7605 0.0 0
M  V30 20 C 5.2042 8.2629 0.0 0
M  V30 21 C 5.2042 9.7652 0.0 0
M  V30 22 C 3.9032 9.014 0.0 0
M  V30 23 C 6.5053 9.014 0.0 0
M  V30 24 N 5.2042 11.2676 0.0 0
M  V30 25 C 3.9032 10.5164 0.0 0
M  V30 26 C 2.6021 8.2629 0.0 0
M  V30 27 C 7.8064 8.2629 0.0 0
M  V30 28 C 6.5053 10.5164 0.0 0
M  V30 29 C 2.6021 11.2676 0.0 0
M  V30 30 C 1.301 9.014 0.0 0
M  V30 31 C 9.1075 9.014 0.0 0
M  V30 32 C 7.8064 11.2676 0.0 0
M  V30 33 C 1.301 10.5164 0.0 0
M  V30 34 C 9.1075 10.5164 0.0 0
M  V30 END ATOM
M  V30 BEGIN BOND
M  V30 1 2 1 2
M  V30 2 1 2 3
M  V30 3 1 2 4
M  V30 4 1 3 5
M  V30 5 1 4 6
M  V30 6 1 4 7
M  V30 7 1 4 8
M  V30 8 1 5 9
M  V30 9 2 6 10
M  V30 10 1 6 11
M  V30 11 1 7 12
M  V30 12 1 8 13
M  V30 13 1 10 14
M  V30 14 2 11 15
M  V30 15 1 12 16
M  V30 16 2 14 17
M  V30 17 1 16 18
M  V30 18 1 18 19
M  V30 19 1 19 20
M  V30 20 1 20 21
M  V30 21 1 20 22
M  V30 22 1 20 23
M  V30 23 3 21 24
M  V30 24 2 22 25
M  V30 25 1 22 26
M  V30 26 2 23 27
M  V30 27 1 23 28
M  V30 28 1 25 29
M  V30 29 2 26 30
M  V30 30 1 27 31
M  V30 31 2 28 32
M  V30 32 2 29 33
M  V30 33 2 31 34
M  V30 34 1 13 16
M  V30 35 1 15 17
M  V30 36 1 30 33
M  V30 37 1 32 34
M  V30 END BOND
M  V30 END CTAB
M  END
>  <Drug Name>
Diphenoxylate

>  <Carbon Count>
30

>  <SMILES String>
CCOC(C1(CCN(CC1)CCC(C2=CC=CC=C2)(C#N)C3=CC=CC=C3)C4=CC=CC=C4)=O

$$$$
Levomefolate Calcium
Actelion Java MolfileCreator 2.0

  0  0  0  0  0  0              0 V3000
M  V30 BEGIN CTAB
M  V30 COUNTS 34 35 0 0 0
M  V30 BEGIN ATOM
M  V30 1 Ca 0.0 0.0 0.0 0 CHG=2
M  V30 2 O 21.5697 -2.645 0.0 0
M  V30 3 C 21.8302 -1.1678 0.0 0
M  V30 4 N 23.2397 -0.6547 0.0 0
M  V30 5 C 20.6811 -0.2036 0.0 0
M  V30 6 C 23.5002 0.8224 0.0 0
M  V30 7 N 19.2716 -0.7166 0.0 0
M  V30 8 C 20.9416 1.2735 0.0 0
M  V30 9 N 22.3511 1.7866 0.0 0
M  V30 10 N 24.9098 1.3354 0.0 0
M  V30 11 C 18.1225 0.2475 0.0 0 CFG=2
M  V30 12 C 19.0111 -2.1938 0.0 0
M  V30 13 N 19.7925 2.2377 0.0 0
M  V30 14 C 18.383 1.7247 0.0 0
M  V30 15 C 16.713 -0.2655 0.0 0
M  V30 16 N 15.5639 0.6986 0.0 0
M  V30 17 C 14.1544 0.1856 0.0 0
M  V30 18 C 13.0053 1.1498 0.0 0
M  V30 19 C 13.8939 -1.2915 0.0 0
M  V30 20 C 11.5958 0.6367 0.0 0
M  V30 21 C 12.4844 -1.8046 0.0 0
M  V30 22 C 11.3353 -0.8404 0.0 0
M  V30 23 C 9.9258 -1.3534 0.0 0
M  V30 24 O 9.6653 -2.8306 0.0 0
M  V30 25 N 8.7767 -0.3892 0.0 0
M  V30 26 C 7.3672 -0.9023 0.0 0 CFG=2
M  V30 27 C 7.1067 -2.3795 0.0 0
M  V30 28 C 6.2181 0.0618 0.0 0
M  V30 29 O 5.6971 -2.8925 0.0 0
M  V30 30 O 8.2558 -3.3436 0.0 0 CHG=-1
M  V30 31 C 4.8086 -0.4511 0.0 0
M  V30 32 C 3.6595 0.513 0.0 0
M  V30 33 O 3.92 1.9902 0.0 0
M  V30 34 O 2.25 0.0 0.0 0 CHG=-1
M  V30 END ATOM
M  V30 BEGIN BOND
M  V30 1 2 2 3
M  V30 2 1 3 4
M  V30 3 1 3 5
M  V30 4 2 4 6
M  V30 5 1 5 7
M  V30 6 2 5 8
M  V30 7 1 6 9
M  V30 8 1 6 10
M  V30 9 1 7 11
M  V30 10 1 7 12
M  V30 11 1 8 13
M  V30 12 1 11 14
M  V30 13 1 11 15 CFG=1
M  V30 14 1 15 16
M  V30 15 1 16 17
M  V30 16 2 17 18
M  V30 17 1 17 19
M  V30 18 1 18 20
M  V30 19 2 19 21
M  V30 20 2 20 22
M  V30 21 1 22 23
M  V30 22 2 23 24
M  V30 23 1 23 25
M  V30 24 1 26 25 CFG=3
M  V30 25 1 26 27
M  V30 26 1 26 28
M  V30 27 2 27 29
M  V30 28 1 27 30
M  V30 29 1 28 31
M  V30 30 1 31 32
M  V30 31 2 32 33
M  V30 32 1 32 34
M  V30 33 1 8 9
M  V30 34 1 13 14
M  V30 35 1 21 22
M  V30 END BOND
M  V30 BEGIN COLLECTION
M  V30 MDLV30/STERAC1 ATOMS=(2 11 26)
M  V30 END COLLECTION
M  V30 END CTAB
M  END
>  <Drug Name>
Levomefolate Calcium

>  <Carbon Count>
21

>  <SMILES String>
CN1[C@H](CNC2=C1C(N=C(N2)N)=O)CNC3=CC=C(C(N[C@H](C([O-])=O)CCC([O-])=O)=O)C=C3.[Ca+2]

$$$$
Tenofovir Disoproxil
Actelion Java MolfileCreator 2.0

  0  0  0  0  0  0              0 V3000
M  V30 BEGIN CTAB
M  V30 COUNTS 35 36 0 0 0
M  V30 BEGIN ATOM
M  V30 1 P 9.0932 0.0 0.0 0
M  V30 2 O 9.0932 -1.5 0.0 0
M  V30 3 O 10.3923 -0.75 0.0 0
M  V30 4 O 7.7942 -0.75 0.0 0
M  V30 5 C 9.0932 1.5 0.0 0
M  V30 6 C 11.6913 0.0 0.0 0
M  V30 7 C 6.4951 0.0 0.0 0
M  V30 8 O 10.3923 2.25 0.0 0
M  V30 9 O 12.9903 -0.75 0.0 0
M  V30 10 O 5.1961 -0.75 0.0 0
M  V30 11 C 10.3923 3.7499 0.0 0 CFG=1
M  V30 12 C 14.2894 0.0 0.0 0
M  V30 13 C 3.8971 0.0 0.0 0
M  V30 14 C 11.6913 4.5 0.0 0
M  V30 15 C 9.0932 4.5 0.0 0
M  V30 16 O 14.2894 1.5 0.0 0
M  V30 17 O 15.5884 -0.75 0.0 0
M  V30 18 O 3.8971 1.5 0.0 0
M  V30 19 O 2.598 -0.75 0.0 0
M  V30 20 N 11.6913 5.9999 0.0 0
M  V30 21 C 16.8874 0.0 0.0 0
M  V30 22 C 1.299 0.0 0.0 0
M  V30 23 C 12.9048 6.8816 0.0 0
M  V30 24 C 10.4778 6.8816 0.0 0
M  V30 25 C 18.1865 -0.75 0.0 0
M  V30 26 C 16.8874 1.5 0.0 0
M  V30 27 C 1.299 1.5 0.0 0
M  V30 28 C 0.0 -0.75 0.0 0
M  V30 29 N 14.372 6.5698 0.0 0
M  V30 30 C 12.4413 8.3082 0.0 0
M  V30 31 N 10.9413 8.3082 0.0 0
M  V30 32 C 15.3757 7.6845 0.0 0
M  V30 33 C 13.445 9.4229 0.0 0
M  V30 34 N 14.9122 9.1111 0.0 0
M  V30 35 N 12.9815 10.8495 0.0 0
M  V30 END ATOM
M  V30 BEGIN BOND
M  V30 1 2 1 2
M  V30 2 1 1 3
M  V30 3 1 1 4
M  V30 4 1 1 5
M  V30 5 1 3 6
M  V30 6 1 4 7
M  V30 7 1 5 8
M  V30 8 1 6 9
M  V30 9 1 7 10
M  V30 10 1 8 11
M  V30 11 1 9 12
M  V30 12 1 10 13
M  V30 13 1 11 14
M  V30 14 1 11 15 CFG=3
M  V30 15 2 12 16
M  V30 16 1 12 17
M  V30 17 2 13 18
M  V30 18 1 13 19
M  V30 19 1 14 20
M  V30 20 1 17 21
M  V30 21 1 19 22
M  V30 22 1 20 23
M  V30 23 1 20 24
M  V30 24 1 21 25
M  V30 25 1 21 26
M  V30 26 1 22 27
M  V30 27 1 22 28
M  V30 28 2 23 29
M  V30 29 1 23 30
M  V30 30 2 24 31
M  V30 31 1 29 32
M  V30 32 2 30 33
M  V30 33 2 32 34
M  V30 34 1 33 35
M  V30 35 1 30 31
M  V30 36 1 33 34
M  V30 END BOND
M  V30 BEGIN COLLECTION
M  V30 MDLV30/STEABS ATOMS=(1 11)
M  V30 END COLLECTION
M  V30 END CTAB
M  END
>  <Drug Name>
Tenofovir Disoproxil

>  <Carbon Count>
19

>  <SMILES String>
O=P(OCOC(OC(C)C)=O)(OCOC(OC(C)C)=O)CO[C@H](C)CN1C2=C(N=C1)C(N)=NC=N2

$$$$
Dabrafenib
Actelion Java MolfileCreator 2.0

  0  0  0  0  0  0              0 V3000
M  V30 BEGIN CTAB
M  V30 COUNTS 35 38 0 0 0
M  V30 BEGIN ATOM
M  V30 1 S 2.598 -0.75 0.0 0
M  V30 2 O 1.848 -2.049 0.0 0
M  V30 3 O 3.348 -2.049 0.0 0
M  V30 4 N 1.299 0.0 0.0 0
M  V30 5 C 3.8971 0.0 0.0 0
M  V30 6 C 0.0 -0.75 0.0 0
M  V30 7 C 5.1961 -0.75 0.0 0
M  V30 8 C 3.8971 1.5 0.0 0
M  V30 9 C -1.299 0.0 0.0 0
M  V30 10 C 0.0 -2.25 0.0 0
M  V30 11 F 5.1961 -2.25 0.0 0
M  V30 12 C 6.4951 0.0 0.0 0
M  V30 13 F 2.598 2.25 0.0 0
M  V30 14 C 5.1961 2.25 0.0 0
M  V30 15 F -1.299 1.5 0.0 0
M  V30 16 C -2.598 -0.75 0.0 0
M  V30 17 C -1.299 -3.0 0.0 0
M  V30 18 C 6.4951 1.5 0.0 0
M  V30 19 C -3.8971 0.0 0.0 0
M  V30 20 C -2.598 -2.25 0.0 0
M  V30 21 N -4.0539 1.4917 0.0 0
M  V30 22 C -5.2674 -0.6101 0.0 0
M  V30 23 C -5.5211 1.8036 0.0 0
M  V30 24 S -6.2711 0.5046 0.0 0
M  V30 25 C -5.5793 -2.0773 0.0 0
M  V30 26 C -6.1312 3.1739 0.0 0
M  V30 27 N -7.0058 -2.5408 0.0 0
M  V30 28 C -4.4645 -3.081 0.0 0
M  V30 29 C -7.5015 2.5638 0.0 0
M  V30 30 C -6.7413 4.5442 0.0 0
M  V30 31 C -4.7609 3.784 0.0 0
M  V30 32 C -7.3177 -4.008 0.0 0
M  V30 33 C -4.7764 -4.5482 0.0 0
M  V30 34 N -6.203 -5.0117 0.0 0
M  V30 35 N -8.7443 -4.4716 0.0 0
M  V30 END ATOM
M  V30 BEGIN BOND
M  V30 1 2 1 2
M  V30 2 2 1 3
M  V30 3 1 1 4
M  V30 4 1 1 5
M  V30 5 1 4 6
M  V30 6 2 5 7
M  V30 7 1 5 8
M  V30 8 2 6 9
M  V30 9 1 6 10
M  V30 10 1 7 11
M  V30 11 1 7 12
M  V30 12 1 8 13
M  V30 13 2 8 14
M  V30 14 1 9 15
M  V30 15 1 9 16
M  V30 16 2 10 17
M  V30 17 2 12 18
M  V30 18 1 16 19
M  V30 19 2 16 20
M  V30 20 1 19 21
M  V30 21 2 19 22
M  V30 22 2 21 23
M  V30 23 1 22 24
M  V30 24 1 22 25
M  V30 25 1 23 26
M  V30 26 2 25 27
M  V30 27 1 25 28
M  V30 28 1 26 29
M  V30 29 1 26 30
M  V30 30 1 26 31
M  V30 31 1 27 32
M  V30 32 2 28 33
M  V30 33 2 32 34
M  V30 34 1 32 35
M  V30 35 1 14 18
M  V30 36 1 17 20
M  V30 37 1 23 24
M  V30 38 1 33 34
M  V30 END BOND
M  V30 END CTAB
M  END
>  <Drug Name>
Dabrafenib

>  <Carbon Count>
23

>  <SMILES String>
CC(C)(C1=NC(C2=C(C(NS(=O)(C3=C(C=CC=C3F)F)=O)=CC=C2)F)=C(C4=CC=NC(N)=N4)S1)C

$$$$
Dabrafenib
Actelion Java MolfileCreator 2.0

  0  0  0  0  0  0              0 V3000
M  V30 BEGIN CTAB
M  V30 COUNTS 35 38 0 0 0
M  V30 BEGIN ATOM
M  V30 1 S 2.598 -0.75 0.0 0
M  V30 2 O 1.848 -2.049 0.0 0
M  V30 3 O 3.348 -2.049 0.0 0
M  V30 4 N 1.299 0.0 0.0 0
M  V30 5 C 3.8971 0.0 0.0 0
M  V30 6 C 0.0 -0.75 0.0 0
M  V30 7 C 5.1961 -0.75 0.0 0
M  V30 8 C 3.8971 1.5 0.0 0
M  V30 9 C -1.299 0.0 0.0 0
M  V30 10 C 0.0 -2.25 0.0 0
M  V30 11 F 5.1961 -2.25 0.0 0
M  V30 12 C 6.4951 0.0 0.0 0
M  V30 13 F 2.598 2.25 0.0 0
M  V30 14 C 5.1961 2.25 0.0 0
M  V30 15 F -1.299 1.5 0.0 0
M  V30 16 C -2.598 -0.75 0.0 0
M  V30 17 C -1.299 -3.0 0.0 0
M  V30 18 C 6.4951 1.5 0.0 0
M  V30 19 C -3.8971 0.0 0.0 0
M  V30 20 C -2.598 -2.25 0.0 0
M  V30 21 N -4.0539 1.4917 0.0 0
M  V30 22 C -5.2674 -0.6101 0.0 0
M  V30 23 C -5.5211 1.8036 0.0 0
M  V30 24 S -6.2711 0.5046 0.0 0
M  V30 25 C -5.5793 -2.0773 0.0 0
M  V30 26 C -6.1312 3.1739 0.0 0
M  V30 27 N -7.0058 -2.5408 0.0 0
M  V30 28 C -4.4645 -3.081 0.0 0
M  V30 29 C -7.5015 2.5638 0.0 0
M  V30 30 C -6.7413 4.5442 0.0 0
M  V30 31 C -4.7609 3.784 0.0 0
M  V30 32 C -7.3177 -4.008 0.0 0
M  V30 33 C -4.7764 -4.5482 0.0 0
M  V30 34 N -6.203 -5.0117 0.0 0
M  V30 35 N -8.7443 -4.4716 0.0 0
M  V30 END ATOM
M  V30 BEGIN BOND
M  V30 1 2 1 2
M  V30 2 2 1 3
M  V30 3 1 1 4
M  V30 4 1 1 5
M  V30 5 1 4 6
M  V30 6 2 5 7
M  V30 7 1 5 8
M  V30 8 2 6 9
M  V30 9 1 6 10
M  V30 10 1 7 11
M  V30 11 1 7 12
M  V30 12 1 8 13
M  V30 13 2 8 14
M  V30 14 1 9 15
M  V30 15 1 9 16
M  V30 16 2 10 17
M  V30 17 2 12 18
M  V30 18 1 16 19
M  V30 19 2 16 20
M  V30 20 1 19 21
M  V30 21 2 19 22
M  V30 22 2 21 23
M  V30 23 1 22 24
M  V30 24 1 22 25
M  V30 25 1 23 26
M  V30 26 2 25 27
M  V30 27 1 25 28
M  V30 28 1 26 29
M  V30 29 1 26 30
M  V30 30 1 26 31
M  V30 31 1 27 32
M  V30 32 2 28 33
M  V30 33 2 32 34
M  V30 34 1 32 35
M  V30 35 1 14 18
M  V30 36 1 17 20
M  V30 37 1 23 24
M  V30 38 1 33 34
M  V30 END BOND
M  V30 END CTAB
M  END
>  <Drug Name>
Dabrafenib

>  <Carbon Count>
23

>  <SMILES String>
CC(C)(C1=NC(C2=C(C(NS(=O)(C3=C(C=CC=C3F)F)=O)=CC=C2)F)=C(C4=CC=NC(N)=N4)S1)C

$$$$
Dabrafenib
Actelion Java MolfileCreator 2.0

  0  0  0  0  0  0              0 V3000
M  V30 BEGIN CTAB
M  V30 COUNTS 35 38 0 0 0
M  V30 BEGIN ATOM
M  V30 1 S 2.598 -0.75 0.0 0
M  V30 2 O 1.848 -2.049 0.0 0
M  V30 3 O 3.348 -2.049 0.0 0
M  V30 4 N 1.299 0.0 0.0 0
M  V30 5 C 3.8971 0.0 0.0 0
M  V30 6 C 0.0 -0.75 0.0 0
M  V30 7 C 5.1961 -0.75 0.0 0
M  V30 8 C 3.8971 1.5 0.0 0
M  V30 9 C -1.299 0.0 0.0 0
M  V30 10 C 0.0 -2.25 0.0 0
M  V30 11 F 5.1961 -2.25 0.0 0
M  V30 12 C 6.4951 0.0 0.0 0
M  V30 13 F 2.598 2.25 0.0 0
M  V30 14 C 5.1961 2.25 0.0 0
M  V30 15 F -1.299 1.5 0.0 0
M  V30 16 C -2.598 -0.75 0.0 0
M  V30 17 C -1.299 -3.0 0.0 0
M  V30 18 C 6.4951 1.5 0.0 0
M  V30 19 C -3.8971 0.0 0.0 0
M  V30 20 C -2.598 -2.25 0.0 0
M  V30 21 N -4.0539 1.4917 0.0 0
M  V30 22 C -5.2674 -0.6101 0.0 0
M  V30 23 C -5.5211 1.8036 0.0 0
M  V30 24 S -6.2711 0.5046 0.0 0
M  V30 25 C -5.5793 -2.0773 0.0 0
M  V30 26 C -6.1312 3.1739 0.0 0
M  V30 27 N -7.0058 -2.5408 0.0 0
M  V30 28 C -4.4645 -3.081 0.0 0
M  V30 29 C -7.5015 2.5638 0.0 0
M  V30 30 C -6.7413 4.5442 0.0 0
M  V30 31 C -4.7609 3.784 0.0 0
M  V30 32 C -7.3177 -4.008 0.0 0
M  V30 33 C -4.7764 -4.5482 0.0 0
M  V30 34 N -6.203 -5.0117 0.0 0
M  V30 35 N -8.7443 -4.4716 0.0 0
M  V30 END ATOM
M  V30 BEGIN BOND
M  V30 1 2 1 2
M  V30 2 2 1 3
M  V30 3 1 1 4
M  V30 4 1 1 5
M  V30 5 1 4 6
M  V30 6 2 5 7
M  V30 7 1 5 8
M  V30 8 2 6 9
M  V30 9 1 6 10
M  V30 10 1 7 11
M  V30 11 1 7 12
M  V30 12 1 8 13
M  V30 13 2 8 14
M  V30 14 1 9 15
M  V30 15 1 9 16
M  V30 16 2 10 17
M  V30 17 2 12 18
M  V30 18 1 16 19
M  V30 19 2 16 20
M  V30 20 1 19 21
M  V30 21 2 19 22
M  V30 22 2 21 23
M  V30 23 1 22 24
M  V30 24 1 22 25
M  V30 25 1 23 26
M  V30 26 2 25 27
M  V30 27 1 25 28
M  V30 28 1 26 29
M  V30 29 1 26 30
M  V30 30 1 26 31
M  V30 31 1 27 32
M  V30 32 2 28 33
M  V30 33 2 32 34
M  V30 34 1 32 35
M  V30 35 1 14 18
M  V30 36 1 17 20
M  V30 37 1 23 24
M  V30 38 1 33 34
M  V30 END BOND
M  V30 END CTAB
M  END
>  <Drug Name>
Dabrafenib

>  <Carbon Count>
23

>  <SMILES String>
CC(C)(C1=NC(C2=C(C(NS(=O)(C3=C(C=CC=C3F)F)=O)=CC=C2)F)=C(C4=CC=NC(N)=N4)S1)C

$$$$
Dasabuvir
Actelion Java MolfileCreator 2.0

  0  0  0  0  0  0              0 V3000
M  V30 BEGIN CTAB
M  V30 COUNTS 35 38 0 0 0
M  V30 BEGIN ATOM
M  V30 1 S 1.732 -0.5 0.0 0
M  V30 2 O 1.232 -1.366 0.0 0
M  V30 3 O 2.232 0.366 0.0 0
M  V30 4 N 0.866 0.0 0.0 0
M  V30 5 C 2.598 -0.9999 0.0 0
M  V30 6 C 0.0 -0.5 0.0 0
M  V30 7 C -0.866 0.0 0.0 0
M  V30 8 C 0.0 -1.4999 0.0 0
M  V30 9 C -1.732 -0.4999 0.0 0
M  V30 10 C -0.866 -1.9999 0.0 0
M  V30 11 C -1.732 -1.4999 0.0 0
M  V30 12 C -2.598 0.0 0.0 0
M  V30 13 C -2.598 -1.9999 0.0 0
M  V30 14 C -3.4641 -0.4999 0.0 0
M  V30 15 C -3.4641 -1.4999 0.0 0
M  V30 16 C -4.3301 -1.9999 0.0 0
M  V30 17 C -5.1961 -1.4999 0.0 0
M  V30 18 C -4.3301 -2.9999 0.0 0
M  V30 19 O -5.1961 -0.4999 0.0 0
M  V30 20 C -6.0621 -1.9999 0.0 0
M  V30 21 C -5.1961 -3.4999 0.0 0
M  V30 22 C -4.3301 0.0 0.0 0
M  V30 23 C -6.0621 -2.9999 0.0 0
M  V30 24 C -6.9282 -1.4999 0.0 0
M  V30 25 N -5.1961 -4.4999 0.0 0
M  V30 26 C -7.4282 -2.366 0.0 0
M  V30 27 C -7.7942 -0.9999 0.0 0
M  V30 28 C -6.4282 -0.6339 0.0 0
M  V30 29 C -6.0621 -4.9999 0.0 0
M  V30 30 C -4.3301 -4.9999 0.0 0
M  V30 31 O -6.9282 -4.4999 0.0 0
M  V30 32 N -6.0621 -5.9999 0.0 0
M  V30 33 C -4.3301 -5.9999 0.0 0
M  V30 34 C -5.1961 -6.4999 0.0 0
M  V30 35 O -5.1961 -7.4999 0.0 0
M  V30 END ATOM
M  V30 BEGIN BOND
M  V30 1 2 1 2
M  V30 2 2 1 3
M  V30 3 1 1 4
M  V30 4 1 1 5
M  V30 5 1 4 6
M  V30 6 2 6 7
M  V30 7 1 6 8
M  V30 8 1 7 9
M  V30 9 2 8 10
M  V30 10 1 9 11
M  V30 11 2 9 12
M  V30 12 2 11 13
M  V30 13 1 12 14
M  V30 14 1 13 15
M  V30 15 1 15 16
M  V30 16 2 16 17
M  V30 17 1 16 18
M  V30 18 1 17 19
M  V30 19 1 17 20
M  V30 20 2 18 21
M  V30 21 1 19 22
M  V30 22 2 20 23
M  V30 23 1 20 24
M  V30 24 1 21 25
M  V30 25 1 24 26
M  V30 26 1 24 27
M  V30 27 1 24 28
M  V30 28 1 25 29
M  V30 29 1 25 30
M  V30 30 2 29 31
M  V30 31 1 29 32
M  V30 32 2 30 33
M  V30 33 1 32 34
M  V30 34 2 34 35
M  V30 35 1 10 11
M  V30 36 2 14 15
M  V30 37 1 21 23
M  V30 38 1 33 34
M  V30 END BOND
M  V30 END CTAB
M  END
>  <Drug Name>
Dasabuvir

>  <Carbon Count>
26

>  <SMILES String>
CS(=O)(NC1=CC=C2C=C(C3=CC(N(C(N4)=O)C=CC4=O)=CC(C(C)(C)C)=C3OC)C=CC2=C1)=O

$$$$
Mometasone
Actelion Java MolfileCreator 2.0

  0  0  0  0  0  0              0 V3000
M  V30 BEGIN CTAB
M  V30 COUNTS 28 31 0 0 0
M  V30 BEGIN ATOM
M  V30 1 Cl 5.0694 -3.4206 0.0 0
M  V30 2 C 3.8793 -3.574 0.0 0 CFG=2
M  V30 3 C 4.5484 -4.3172 0.0 0 CFG=2
M  V30 4 C 4.1883 -2.623 0.0 0 CFG=1
M  V30 5 C 2.9011 -3.7819 0.0 0 CFG=2
M  V30 6 C 4.2394 -5.2682 0.0 0
M  V30 7 C 5.5266 -4.1093 0.0 0
M  V30 8 C 4.8574 -3.1161 0.0 0
M  V30 9 O 5.1664 -2.4151 0.0 0
M  V30 10 C 3.5192 -1.8798 0.0 0
M  V30 11 C 2.232 -3.0388 0.0 0 CFG=1
M  V30 12 C 2.5921 -4.733 0.0 0
M  V30 13 C 4.9085 -6.0114 0.0 0
M  V30 14 C 3.2612 -5.4761 0.0 0
M  V30 15 C 6.1957 -4.8524 0.0 0
M  V30 16 C 2.541 -2.0877 0.0 0 CFG=1
M  V30 17 C 1.232 -3.0388 0.0 0
M  V30 18 C 5.8867 -5.8035 0.0 0
M  V30 19 C 1.732 -1.5 0.0 0 CFG=1
M  V30 20 C 2.9091 -1.1905 0.0 0
M  V30 21 C 0.923 -2.0877 0.0 0 CFG=2
M  V30 22 O 6.5558 -6.5466 0.0 0
M  V30 23 O 2.5429 -1.0055 0.0 0
M  V30 24 C 1.732 -0.5 0.0 0
M  V30 25 C -0.028 -1.7787 0.0 0
M  V30 26 O 2.598 0.0 0.0 0
M  V30 27 C 0.866 0.0 0.0 0
M  V30 28 Cl 0.0 -0.5 0.0 0
M  V30 END ATOM
M  V30 BEGIN BOND
M  V30 1 1 2 1 CFG=1
M  V30 2 1 2 3
M  V30 3 1 2 4
M  V30 4 1 2 5
M  V30 5 1 3 6
M  V30 6 1 3 7
M  V30 7 1 3 8 CFG=3
M  V30 8 1 4 9 CFG=3
M  V30 9 1 4 10
M  V30 10 1 5 11
M  V30 11 1 5 12 CFG=1
M  V30 12 2 6 13
M  V30 13 1 6 14
M  V30 14 2 7 15
M  V30 15 1 10 16
M  V30 16 1 11 17 CFG=3
M  V30 17 1 13 18
M  V30 18 1 16 19
M  V30 19 1 16 20 CFG=3
M  V30 20 1 17 21
M  V30 21 2 18 22
M  V30 22 1 19 23 CFG=1
M  V30 23 1 19 24
M  V30 24 1 21 25 CFG=1
M  V30 25 2 24 26
M  V30 26 1 24 27
M  V30 27 1 27 28
M  V30 28 1 11 16
M  V30 29 1 12 14
M  V30 30 1 15 18
M  V30 31 1 19 21
M  V30 END BOND
M  V30 BEGIN COLLECTION
M  V30 MDLV30/STEABS ATOMS=(8 2 3 4 5 11 16 19 21)
M  V30 END COLLECTION
M  V30 END CTAB
M  END
>  <Drug Name>
Mometasone

>  <Carbon Count>
27

>  <SMILES String>
C[C@@]12[C@](OC(C3=CC=CO3)=O)([C@@H](C[C@]1([C@@]4(CCC5=CC(C=C[C@@]5(C4([C@H](C2)O)Cl)C)=O)[H])[H])C)C(CCl)=O

$$$$
Linagliptin
Actelion Java MolfileCreator 2.0

  0  0  0  0  0  0              0 V3000
M  V30 BEGIN CTAB
M  V30 COUNTS 35 39 0 0 0
M  V30 BEGIN ATOM
M  V30 1 O 2.598 1.0 0.0 0
M  V30 2 C 2.598 0.0 0.0 0
M  V30 3 N 1.732 -0.5 0.0 0
M  V30 4 N 3.4641 -0.4999 0.0 0
M  V30 5 C 1.732 -1.5 0.0 0
M  V30 6 C 0.866 0.0 0.0 0
M  V30 7 C 3.4641 -1.4999 0.0 0
M  V30 8 C 4.3301 0.0 0.0 0
M  V30 9 O 0.866 -2.0 0.0 0
M  V30 10 C 2.598 -1.9999 0.0 0
M  V30 11 C 0.0 -0.5 0.0 0
M  V30 12 N 4.2072 -2.1691 0.0 0
M  V30 13 N 2.8059 -2.9781 0.0 0
M  V30 14 N -0.866 0.0 0.0 0
M  V30 15 N 0.0 -1.4999 0.0 0
M  V30 16 C 3.8005 -3.0826 0.0 0
M  V30 17 C 2.1368 -3.7212 0.0 0
M  V30 18 C -1.732 -0.4999 0.0 0
M  V30 19 C -0.866 -1.9999 0.0 0
M  V30 20 N 4.3005 -3.9487 0.0 0
M  V30 21 C 2.4458 -4.6723 0.0 0
M  V30 22 C -1.732 -1.4999 0.0 0
M  V30 23 C -2.598 0.0 0.0 0
M  V30 24 C -0.866 -2.9999 0.0 0
M  V30 25 C 5.3005 -3.9487 0.0 0
M  V30 26 C 3.8005 -4.8147 0.0 0
M  V30 27 C 2.7548 -5.6234 0.0 0
M  V30 28 C -2.598 -1.9999 0.0 0
M  V30 29 C -3.4641 -0.4999 0.0 0
M  V30 30 C 5.8005 -4.8147 0.0 0 CFG=2
M  V30 31 C 4.3005 -5.6807 0.0 0
M  V30 32 C 3.0639 -6.5744 0.0 0
M  V30 33 C -3.4641 -1.4999 0.0 0
M  V30 34 N 6.8005 -4.8147 0.0 0
M  V30 35 C 5.3005 -5.6807 0.0 0
M  V30 END ATOM
M  V30 BEGIN BOND
M  V30 1 2 1 2
M  V30 2 1 2 3
M  V30 3 1 2 4
M  V30 4 1 3 5
M  V30 5 1 3 6
M  V30 6 1 4 7
M  V30 7 1 4 8
M  V30 8 2 5 9
M  V30 9 1 5 10
M  V30 10 1 6 11
M  V30 11 1 7 12
M  V30 12 1 10 13
M  V30 13 2 11 14
M  V30 14 1 11 15
M  V30 15 2 12 16
M  V30 16 1 13 17
M  V30 17 1 14 18
M  V30 18 2 15 19
M  V30 19 1 16 20
M  V30 20 1 17 21
M  V30 21 1 18 22
M  V30 22 2 18 23
M  V30 23 1 19 24
M  V30 24 1 20 25
M  V30 25 1 20 26
M  V30 26 3 21 27
M  V30 27 2 22 28
M  V30 28 1 23 29
M  V30 29 1 25 30
M  V30 30 1 26 31
M  V30 31 1 27 32
M  V30 32 1 28 33
M  V30 33 1 30 34 CFG=3
M  V30 34 1 30 35
M  V30 35 2 7 10
M  V30 36 1 13 16
M  V30 37 1 19 22
M  V30 38 2 29 33
M  V30 39 1 31 35
M  V30 END BOND
M  V30 BEGIN COLLECTION
M  V30 MDLV30/STEABS ATOMS=(1 30)
M  V30 END COLLECTION
M  V30 END CTAB
M  END
>  <Drug Name>
Linagliptin

>  <Carbon Count>
25

>  <SMILES String>
CC#CCN1C(N2CCC[C@H](C2)N)=NC3=C1C(N(C(N3C)=O)CC4=NC5=C(C(C)=N4)C=CC=C5)=O

$$$$
Bazedoxifene
Actelion Java MolfileCreator 2.0

  0  0  0  0  0  0              0 V3000
M  V30 BEGIN CTAB
M  V30 COUNTS 35 39 0 0 0
M  V30 BEGIN ATOM
M  V30 1 O 2.598 0.0 0.0 0
M  V30 2 C 3.4641 -0.5 0.0 0
M  V30 3 C 1.732 -0.5 0.0 0
M  V30 4 C 3.4641 -1.5 0.0 0
M  V30 5 C 4.3301 0.0 0.0 0
M  V30 6 C 0.866 0.0 0.0 0
M  V30 7 C 4.3301 -2.0 0.0 0
M  V30 8 C 5.1961 -0.5 0.0 0
M  V30 9 N 0.0 -0.5 0.0 0
M  V30 10 C 5.1961 -1.5 0.0 0
M  V30 11 C -0.8262 0.0633 0.0 0
M  V30 12 C 0.0747 -1.4972 0.0 0
M  V30 13 C 6.0621 -2.0 0.0 0
M  V30 14 C -1.7818 -0.2314 0.0 0
M  V30 15 C -0.6583 -2.1773 0.0 0
M  V30 16 N 6.9282 -1.5 0.0 0
M  V30 17 C -2.1471 -1.1623 0.0 0
M  V30 18 C -1.6471 -2.0283 0.0 0
M  V30 19 C 7.8417 -1.9067 0.0 0
M  V30 20 C 7.0327 -0.5054 0.0 0
M  V30 21 C 8.0496 -2.8848 0.0 0
M  V30 22 C 8.5108 -1.1635 0.0 0
M  V30 23 C 8.0108 -0.2975 0.0 0
M  V30 24 C 6.3636 0.2376 0.0 0
M  V30 25 C 7.3065 -3.554 0.0 0
M  V30 26 C 9.0007 -3.1939 0.0 0
M  V30 27 C 9.5054 -1.2681 0.0 0
M  V30 28 C 8.3198 0.6534 0.0 0
M  V30 29 C 6.6726 1.1887 0.0 0
M  V30 30 C 7.5144 -4.5321 0.0 0
M  V30 31 C 9.2086 -4.172 0.0 0
M  V30 32 C 7.6507 1.3966 0.0 0
M  V30 33 C 8.4654 -4.8411 0.0 0
M  V30 34 O 7.9597 2.3476 0.0 0
M  V30 35 O 8.6733 -5.8193 0.0 0
M  V30 END ATOM
M  V30 BEGIN BOND
M  V30 1 1 1 2
M  V30 2 1 1 3
M  V30 3 2 2 4
M  V30 4 1 2 5
M  V30 5 1 3 6
M  V30 6 1 4 7
M  V30 7 2 5 8
M  V30 8 1 6 9
M  V30 9 2 7 10
M  V30 10 1 9 11
M  V30 11 1 9 12
M  V30 12 1 10 13
M  V30 13 1 11 14
M  V30 14 1 12 15
M  V30 15 1 13 16
M  V30 16 1 14 17
M  V30 17 1 15 18
M  V30 18 1 16 19
M  V30 19 1 16 20
M  V30 20 1 19 21
M  V30 21 2 19 22
M  V30 22 2 20 23
M  V30 23 1 20 24
M  V30 24 2 21 25
M  V30 25 1 21 26
M  V30 26 1 22 27
M  V30 27 1 23 28
M  V30 28 2 24 29
M  V30 29 1 25 30
M  V30 30 2 26 31
M  V30 31 2 28 32
M  V30 32 2 30 33
M  V30 33 1 32 34
M  V30 34 1 33 35
M  V30 35 1 8 10
M  V30 36 1 17 18
M  V30 37 1 22 23
M  V30 38 1 29 32
M  V30 39 1 31 33
M  V30 END BOND
M  V30 END CTAB
M  END
>  <Drug Name>
Bazedoxifene

>  <Carbon Count>
30

>  <SMILES String>
CC1=C(C2=CC=C(O)C=C2)N(CC3=CC=C(OCCN4CCCCCC4)C=C3)C5=CC=C(O)C=C51

$$$$
Idarubicin
Actelion Java MolfileCreator 2.0

  0  0  0  0  0  0              0 V3000
M  V30 BEGIN CTAB
M  V30 COUNTS 36 40 0 0 0
M  V30 BEGIN ATOM
M  V30 1 O 2.598 3.0 0.0 0
M  V30 2 C 3.4641 2.5 0.0 0
M  V30 3 C 3.4641 1.4999 0.0 0
M  V30 4 C 4.3301 3.0 0.0 0
M  V30 5 C 2.598 1.0 0.0 0
M  V30 6 C 4.3301 0.9999 0.0 0
M  V30 7 C 5.1961 2.4999 0.0 0
M  V30 8 C 4.3301 4.0 0.0 0
M  V30 9 O 1.732 1.5 0.0 0
M  V30 10 C 2.598 0.0 0.0 0
M  V30 11 C 5.1961 1.4999 0.0 0
M  V30 12 C 4.3301 0.0 0.0 0
M  V30 13 C 6.0621 2.9999 0.0 0
M  V30 14 C 5.1961 4.5 0.0 0
M  V30 15 C 3.4641 -0.5 0.0 0
M  V30 16 C 1.732 -0.5 0.0 0 CFG=1
M  V30 17 O 6.0621 0.9999 0.0 0
M  V30 18 O 5.1961 -0.5 0.0 0
M  V30 19 C 6.0621 3.9999 0.0 0
M  V30 20 C 3.4641 -1.4999 0.0 0
M  V30 21 O 0.866 0.0 0.0 0
M  V30 22 C 1.732 -1.5 0.0 0
M  V30 23 C 2.598 -1.9999 0.0 0 CFG=1
M  V30 24 C 0.0 -0.5 0.0 0 CFG=2
M  V30 25 O 3.4641 -2.4999 0.0 0
M  V30 26 C 2.598 -2.9999 0.0 0
M  V30 27 O -0.866 0.0 0.0 0
M  V30 28 C 0.0 -1.4999 0.0 0
M  V30 29 O 3.4641 -3.5 0.0 0
M  V30 30 C 1.732 -3.4999 0.0 0
M  V30 31 C -1.732 -0.4999 0.0 0 CFG=2
M  V30 32 C -0.866 -1.9999 0.0 0 CFG=1
M  V30 33 C -1.732 -1.4999 0.0 0 CFG=2
M  V30 34 C -2.598 0.0 0.0 0
M  V30 35 N -0.866 -2.9999 0.0 0
M  V30 36 O -2.598 -1.9999 0.0 0
M  V30 END ATOM
M  V30 BEGIN BOND
M  V30 1 2 1 2
M  V30 2 1 2 3
M  V30 3 1 2 4
M  V30 4 2 3 5
M  V30 5 1 3 6
M  V30 6 2 4 7
M  V30 7 1 4 8
M  V30 8 1 5 9
M  V30 9 1 5 10
M  V30 10 1 6 11
M  V30 11 2 6 12
M  V30 12 1 7 13
M  V30 13 2 8 14
M  V30 14 2 10 15
M  V30 15 1 10 16
M  V30 16 2 11 17
M  V30 17 1 12 18
M  V30 18 2 13 19
M  V30 19 1 15 20
M  V30 20 1 16 21 CFG=3
M  V30 21 1 16 22
M  V30 22 1 20 23
M  V30 23 1 24 21 CFG=1
M  V30 24 1 23 25 CFG=3
M  V30 25 1 23 26
M  V30 26 1 24 27
M  V30 27 1 24 28
M  V30 28 2 26 29
M  V30 29 1 26 30
M  V30 30 1 27 31
M  V30 31 1 28 32
M  V30 32 1 31 33
M  V30 33 1 31 34 CFG=3
M  V30 34 1 32 35 CFG=3
M  V30 35 1 33 36 CFG=3
M  V30 36 1 7 11
M  V30 37 1 12 15
M  V30 38 1 14 19
M  V30 39 1 22 23
M  V30 40 1 32 33
M  V30 END BOND
M  V30 BEGIN COLLECTION
M  V30 MDLV30/STEABS ATOMS=(6 16 23 24 31 32 33)
M  V30 END COLLECTION
M  V30 END CTAB
M  END
>  <Drug Name>
Idarubicin

>  <Carbon Count>
26

>  <SMILES String>
O=C(C(C(O)=C([C@@H](O[C@]1([H])O[C@@H](C)[C@@H](O)[C@@H](N)C1)C[C@@](C(C)=O)(O)C2)C2=C3O)=C3C4=O)C5=C4C=CC=C5

$$$$
Moexipril
Actelion Java MolfileCreator 2.0

  0  0  0  0  0  0              0 V3000
M  V30 BEGIN CTAB
M  V30 COUNTS 36 38 0 0 0
M  V30 BEGIN ATOM
M  V30 1 O 8.6602 1.5 0.0 0
M  V30 2 C 7.7942 1.0 0.0 0
M  V30 3 O 6.9282 1.4999 0.0 0
M  V30 4 C 7.7942 0.0 0.0 0 CFG=1
M  V30 5 N 6.9282 -0.5 0.0 0
M  V30 6 C 8.6602 -0.4999 0.0 0
M  V30 7 C 6.0621 0.0 0.0 0
M  V30 8 C 6.9282 -1.4999 0.0 0
M  V30 9 C 8.6602 -1.4999 0.0 0
M  V30 10 O 6.0621 0.9999 0.0 0
M  V30 11 C 5.1961 -0.5 0.0 0 CFG=1
M  V30 12 C 7.7942 -2.0 0.0 0
M  V30 13 C 9.5262 -1.9999 0.0 0
M  V30 14 N 4.3301 0.0 0.0 0
M  V30 15 C 5.1961 -1.4999 0.0 0
M  V30 16 C 7.7942 -3.0 0.0 0
M  V30 17 C 9.5262 -2.9999 0.0 0
M  V30 18 C 3.4641 -0.5 0.0 0 CFG=2
M  V30 19 C 8.6602 -3.4999 0.0 0
M  V30 20 O 10.3923 -3.4999 0.0 0
M  V30 21 C 2.598 0.0 0.0 0
M  V30 22 C 3.4641 -1.5 0.0 0
M  V30 23 O 8.6602 -4.4999 0.0 0
M  V30 24 C 11.2583 -3.0 0.0 0
M  V30 25 O 2.598 1.0 0.0 0
M  V30 26 O 1.732 -0.5 0.0 0
M  V30 27 C 2.598 -2.0 0.0 0
M  V30 28 C 9.5262 -4.9999 0.0 0
M  V30 29 C 0.866 0.0 0.0 0
M  V30 30 C 2.598 -3.0 0.0 0
M  V30 31 C 0.0 -0.5 0.0 0
M  V30 32 C 1.732 -3.4999 0.0 0
M  V30 33 C 3.4641 -3.5 0.0 0
M  V30 34 C 1.732 -4.5 0.0 0
M  V30 35 C 3.4641 -4.5 0.0 0
M  V30 36 C 2.598 -5.0 0.0 0
M  V30 END ATOM
M  V30 BEGIN BOND
M  V30 1 2 1 2
M  V30 2 1 2 3
M  V30 3 1 4 2 CFG=3
M  V30 4 1 4 5
M  V30 5 1 4 6
M  V30 6 1 5 7
M  V30 7 1 5 8
M  V30 8 1 6 9
M  V30 9 2 7 10
M  V30 10 1 7 11
M  V30 11 1 8 12
M  V30 12 1 9 13
M  V30 13 1 11 14
M  V30 14 1 11 15 CFG=3
M  V30 15 1 12 16
M  V30 16 2 13 17
M  V30 17 1 18 14 CFG=1
M  V30 18 2 16 19
M  V30 19 1 17 20
M  V30 20 1 18 21
M  V30 21 1 18 22
M  V30 22 1 19 23
M  V30 23 1 20 24
M  V30 24 2 21 25
M  V30 25 1 21 26
M  V30 26 1 22 27
M  V30 27 1 23 28
M  V30 28 1 26 29
M  V30 29 1 27 30
M  V30 30 1 29 31
M  V30 31 2 30 32
M  V30 32 1 30 33
M  V30 33 1 32 34
M  V30 34 2 33 35
M  V30 35 2 34 36
M  V30 36 2 9 12
M  V30 37 1 17 19
M  V30 38 1 35 36
M  V30 END BOND
M  V30 BEGIN COLLECTION
M  V30 MDLV30/STEABS ATOMS=(3 4 11 18)
M  V30 END COLLECTION
M  V30 END CTAB
M  END
>  <Drug Name>
Moexipril

>  <Carbon Count>
28

>  <SMILES String>
O=C([C@H](C)N[C@@H](CCC1=CC=CC=C1)C(OCC)=O)C2C(C(O)=O)CC(C=C(OC)C(OC)=C3)=C3C2

$$$$
Sofosbuvir
Actelion Java MolfileCreator 2.0

  0  0  0  0  0  0              0 V3000
M  V30 BEGIN CTAB
M  V30 COUNTS 36 38 0 0 0
M  V30 BEGIN ATOM
M  V30 1 P 7.7942 -0.75 0.0 0 CFG=2
M  V30 2 O 9.0932 -1.5 0.0 0
M  V30 3 O 7.7942 -2.25 0.0 0
M  V30 4 O 9.0932 0.0 0.0 0
M  V30 5 N 6.4951 0.0 0.0 0
M  V30 6 C 9.0932 -3.0 0.0 0
M  V30 7 C 10.3923 -0.75 0.0 0
M  V30 8 C 5.1961 -0.75 0.0 0 CFG=2
M  V30 9 C 10.3923 -2.25 0.0 0
M  V30 10 C 9.0932 -4.5 0.0 0
M  V30 11 C 11.6913 0.0 0.0 0 CFG=1
M  V30 12 C 3.8971 0.0 0.0 0
M  V30 13 C 5.1961 -2.25 0.0 0
M  V30 14 C 11.6913 -3.0 0.0 0
M  V30 15 C 10.3923 -5.25 0.0 0
M  V30 16 O 13.0616 -0.6101 0.0 0
M  V30 17 C 11.8481 1.4917 0.0 0 CFG=1
M  V30 18 O 3.8971 1.5 0.0 0
M  V30 19 O 2.598 -0.75 0.0 0
M  V30 20 C 11.6913 -4.5 0.0 0
M  V30 21 C 14.0653 0.5046 0.0 0 CFG=2
M  V30 22 O 10.7334 2.4954 0.0 0
M  V30 23 C 13.3153 1.8036 0.0 0 CFG=2
M  V30 24 C 1.299 0.0 0.0 0
M  V30 25 N 15.5571 0.3478 0.0 0
M  V30 26 F 14.5288 2.6852 0.0 0
M  V30 27 C 13.1585 3.2954 0.0 0
M  V30 28 C 1.299 1.5 0.0 0
M  V30 29 C 0.0 -0.75 0.0 0
M  V30 30 C 16.1672 -1.0224 0.0 0
M  V30 31 C 16.4388 1.5613 0.0 0
M  V30 32 O 15.2855 -2.236 0.0 0
M  V30 33 N 17.659 -1.1792 0.0 0
M  V30 34 C 17.9306 1.4045 0.0 0
M  V30 35 C 18.5407 0.0342 0.0 0
M  V30 36 O 20.0325 -0.1225 0.0 0
M  V30 END ATOM
M  V30 BEGIN BOND
M  V30 1 2 1 2
M  V30 2 1 1 3 CFG=3
M  V30 3 1 1 4
M  V30 4 1 1 5
M  V30 5 1 3 6
M  V30 6 1 4 7
M  V30 7 1 5 8
M  V30 8 2 6 9
M  V30 9 1 6 10
M  V30 10 1 11 7 CFG=3
M  V30 11 1 8 12
M  V30 12 1 8 13 CFG=1
M  V30 13 1 9 14
M  V30 14 2 10 15
M  V30 15 1 11 16
M  V30 16 1 11 17
M  V30 17 2 12 18
M  V30 18 1 12 19
M  V30 19 2 14 20
M  V30 20 1 16 21
M  V30 21 1 17 22 CFG=1
M  V30 22 1 17 23
M  V30 23 1 19 24
M  V30 24 1 21 25 CFG=3
M  V30 25 1 23 26 CFG=1
M  V30 26 1 23 27
M  V30 27 1 24 28
M  V30 28 1 24 29
M  V30 29 1 25 30
M  V30 30 1 25 31
M  V30 31 2 30 32
M  V30 32 1 30 33
M  V30 33 2 31 34
M  V30 34 1 33 35
M  V30 35 2 35 36
M  V30 36 1 15 20
M  V30 37 1 21 23
M  V30 38 1 34 35
M  V30 END BOND
M  V30 BEGIN COLLECTION
M  V30 MDLV30/STERAC1 ATOMS=(6 1 8 11 17 21 23)
M  V30 END COLLECTION
M  V30 END CTAB
M  END
>  <Drug Name>
Sofosbuvir

>  <Carbon Count>
22

>  <SMILES String>
CC(OC([C@@H](N[P@](OCC1O[C@H]([C@](F)([C@@H]1O)C)N2C=CC(NC2=O)=O)(OC3=CC=CC=C3)=O)C)=O)C

$$$$
Betamethasone Dipropionate
Actelion Java MolfileCreator 2.0

  0  0  0  0  0  0              0 V3000
M  V30 BEGIN CTAB
M  V30 COUNTS 36 39 0 0 0
M  V30 BEGIN ATOM
M  V30 1 F 2.0506 -1.3291 0.0 0
M  V30 2 C 2.2723 0.0427 0.0 0 CFG=2
M  V30 3 C 0.8161 -0.3474 0.0 0 CFG=2
M  V30 4 C 3.3383 -1.0232 0.0 0 CFG=1
M  V30 5 C 2.6624 1.4989 0.0 0 CFG=2
M  V30 6 C -0.2498 0.7185 0.0 0
M  V30 7 C 0.4259 -1.8036 0.0 0
M  V30 8 C 1.545 -1.5819 0.0 0
M  V30 9 O 2.9481 -2.4794 0.0 0
M  V30 10 C 4.7201 -0.612 0.0 0
M  V30 11 C 4.1186 1.8891 0.0 0 CFG=1
M  V30 12 C 1.5964 2.5649 0.0 0
M  V30 13 C -1.706 0.3284 0.0 0
M  V30 14 C 0.1402 2.1747 0.0 0
M  V30 15 C -1.0302 -2.1937 0.0 0
M  V30 16 C 5.1847 0.8231 0.0 0 CFG=1
M  V30 17 C 4.8031 3.2324 0.0 0
M  V30 18 C -2.0962 -1.1277 0.0 0
M  V30 19 C 6.5279 1.5075 0.0 0 CFG=1
M  V30 20 C 6.2716 -0.3375 0.0 0
M  V30 21 C 6.2921 2.9965 0.0 0 CFG=1
M  V30 22 O -3.5524 -1.5179 0.0 0
M  V30 23 O 7.8712 0.8231 0.0 0
M  V30 24 C 6.6505 0.1148 0.0 0
M  V30 25 C 7.3581 4.0625 0.0 0
M  V30 26 C 9.1355 1.6442 0.0 0
M  V30 27 O 7.8335 -0.7537 0.0 0
M  V30 28 C 5.3711 -0.7957 0.0 0
M  V30 29 O 9.0566 3.1497 0.0 0
M  V30 30 C 10.4788 0.9598 0.0 0
M  V30 31 O 5.2223 -2.2613 0.0 0
M  V30 32 C 11.7431 1.7808 0.0 0
M  V30 33 C 6.5279 -3.0151 0.0 0
M  V30 34 O 7.8335 -2.2613 0.0 0
M  V30 35 C 6.5279 -4.5226 0.0 0
M  V30 36 C 7.8335 -5.2764 0.0 0
M  V30 END ATOM
M  V30 BEGIN BOND
M  V30 1 1 2 1 CFG=1
M  V30 2 1 2 3
M  V30 3 1 2 4
M  V30 4 1 2 5
M  V30 5 1 3 6
M  V30 6 1 3 7
M  V30 7 1 3 8 CFG=3
M  V30 8 1 4 9 CFG=3
M  V30 9 1 4 10
M  V30 10 1 5 11
M  V30 11 1 5 12 CFG=1
M  V30 12 2 6 13
M  V30 13 1 6 14
M  V30 14 2 7 15
M  V30 15 1 10 16
M  V30 16 1 11 17 CFG=3
M  V30 17 1 13 18
M  V30 18 1 16 19
M  V30 19 1 16 20 CFG=3
M  V30 20 1 17 21
M  V30 21 2 18 22
M  V30 22 1 19 23
M  V30 23 1 19 24 CFG=3
M  V30 24 1 21 25 CFG=3
M  V30 25 1 23 26
M  V30 26 2 24 27
M  V30 27 1 24 28
M  V30 28 2 26 29
M  V30 29 1 26 30
M  V30 30 1 28 31
M  V30 31 1 30 32
M  V30 32 1 31 33
M  V30 33 2 33 34
M  V30 34 1 33 35
M  V30 35 1 35 36
M  V30 36 1 11 16
M  V30 37 1 12 14
M  V30 38 1 15 18
M  V30 39 1 19 21
M  V30 END BOND
M  V30 BEGIN COLLECTION
M  V30 MDLV30/STERAC1 ATOMS=(8 2 3 4 5 11 16 19 21)
M  V30 END COLLECTION
M  V30 END CTAB
M  END
>  <Drug Name>
Betamethasone Dipropionate

>  <Carbon Count>
28

>  <SMILES String>
O=C(OCC(=O)[C@]3(OC(=O)CC)[C@]2(C[C@H](O)[C@]4(F)[C@@]/1(\C(=C/C(=O)\C=C\1)CC[C@H]4[C@@H]2C[C@@H]3C)C)C)CC

$$$$
Dipyridamole
Actelion Java MolfileCreator 2.0

  0  0  0  0  0  0              0 V3000
M  V30 BEGIN CTAB
M  V30 COUNTS 36 39 0 0 0
M  V30 BEGIN ATOM
M  V30 1 O 5.1961 -0.5 0.0 0
M  V30 2 C 4.3301 0.0 0.0 0
M  V30 3 C 3.4641 -0.5 0.0 0
M  V30 4 N 2.598 0.0 0.0 0
M  V30 5 C 2.598 1.0 0.0 0
M  V30 6 C 1.732 -0.5 0.0 0
M  V30 7 N 3.4641 1.5 0.0 0
M  V30 8 N 1.732 1.4999 0.0 0
M  V30 9 C 0.866 0.0 0.0 0
M  V30 10 C 3.4641 2.5 0.0 0
M  V30 11 C 1.732 2.5 0.0 0
M  V30 12 O 0.0 -0.5 0.0 0
M  V30 13 N 4.3301 3.0 0.0 0
M  V30 14 C 2.598 3.0 0.0 0
M  V30 15 C 0.866 3.0 0.0 0
M  V30 16 C 5.1961 2.5 0.0 0
M  V30 17 C 4.3301 4.0 0.0 0
M  V30 18 N 2.598 4.0 0.0 0
M  V30 19 N 0.866 3.9999 0.0 0
M  V30 20 N 0.0 2.4999 0.0 0
M  V30 21 C 6.0621 2.9999 0.0 0
M  V30 22 C 5.1961 4.5 0.0 0
M  V30 23 C 1.732 4.4999 0.0 0
M  V30 24 C -0.866 2.9999 0.0 0
M  V30 25 C 0.0 1.4999 0.0 0
M  V30 26 C 6.0621 4.0 0.0 0
M  V30 27 N 1.732 5.4999 0.0 0
M  V30 28 C -1.732 2.4999 0.0 0
M  V30 29 C -0.866 0.9999 0.0 0
M  V30 30 C 0.866 5.9999 0.0 0
M  V30 31 C 2.598 5.9999 0.0 0
M  V30 32 C -1.732 1.4999 0.0 0
M  V30 33 C 0.0 5.4999 0.0 0
M  V30 34 C 3.4641 5.4999 0.0 0
M  V30 35 O -0.866 5.9999 0.0 0
M  V30 36 O 4.3301 6.0 0.0 0
M  V30 END ATOM
M  V30 BEGIN BOND
M  V30 1 1 1 2
M  V30 2 1 2 3
M  V30 3 1 3 4
M  V30 4 1 4 5
M  V30 5 1 4 6
M  V30 6 1 5 7
M  V30 7 2 5 8
M  V30 8 1 6 9
M  V30 9 2 7 10
M  V30 10 1 8 11
M  V30 11 1 9 12
M  V30 12 1 10 13
M  V30 13 1 10 14
M  V30 14 2 11 15
M  V30 15 1 13 16
M  V30 16 1 13 17
M  V30 17 2 14 18
M  V30 18 1 15 19
M  V30 19 1 15 20
M  V30 20 1 16 21
M  V30 21 1 17 22
M  V30 22 1 18 23
M  V30 23 1 20 24
M  V30 24 1 20 25
M  V30 25 1 21 26
M  V30 26 1 23 27
M  V30 27 1 24 28
M  V30 28 1 25 29
M  V30 29 1 27 30
M  V30 30 1 27 31
M  V30 31 1 28 32
M  V30 32 1 30 33
M  V30 33 1 31 34
M  V30 34 1 33 35
M  V30 35 1 34 36
M  V30 36 1 11 14
M  V30 37 2 19 23
M  V30 38 1 22 26
M  V30 39 1 29 32
M  V30 END BOND
M  V30 END CTAB
M  END
>  <Drug Name>
Dipyridamole

>  <Carbon Count>
24

>  <SMILES String>
OCCN(C1=NC2=C(N3CCCCC3)N=C(N(CCO)CCO)N=C2C(N4CCCCC4)=N1)CCO

$$$$
Ceftriaxone
Actelion Java MolfileCreator 2.0

  0  0  0  0  0  0              0 V3000
M  V30 BEGIN CTAB
M  V30 COUNTS 36 39 0 0 0
M  V30 BEGIN ATOM
M  V30 1 S 7.7942 -3.6477 0.0 0
M  V30 2 C 8.1824 -2.1988 0.0 0 CFG=1
M  V30 3 C 8.8548 -4.7084 0.0 0
M  V30 4 N 9.6313 -1.8106 0.0 0
M  V30 5 C 7.7942 -0.75 0.0 0 CFG=1
M  V30 6 C 10.3037 -4.3202 0.0 0
M  V30 7 C 10.692 -2.8713 0.0 0
M  V30 8 C 9.2431 -0.3617 0.0 0
M  V30 9 N 6.4951 0.0 0.0 0
M  V30 10 C 11.3644 -5.3808 0.0 0
M  V30 11 C 12.1408 -2.483 0.0 0
M  V30 12 O 9.9931 0.9372 0.0 0
M  V30 13 C 5.1961 -0.75 0.0 0
M  V30 14 S 10.9762 -6.8297 0.0 0
M  V30 15 O 13.2015 -3.5437 0.0 0
M  V30 16 O 12.5291 -1.0342 0.0 0
M  V30 17 O 5.1961 -2.25 0.0 0
M  V30 18 C 3.8971 0.0 0.0 0
M  V30 19 C 12.0368 -7.8904 0.0 0
M  V30 20 N 2.598 -0.75 0.0 0
M  V30 21 C 3.8971 1.5 0.0 0
M  V30 22 N 11.6486 -9.3393 0.0 0
M  V30 23 N 13.4857 -7.5021 0.0 0
M  V30 24 O 2.598 -2.25 0.0 0
M  V30 25 N 5.1106 2.3816 0.0 0
M  V30 26 C 2.6835 2.3816 0.0 0
M  V30 27 C 12.7093 -10.3999 0.0 0
M  V30 28 N 14.5464 -8.5628 0.0 0
M  V30 29 C 13.8739 -6.0533 0.0 0
M  V30 30 C 1.299 -3.0 0.0 0
M  V30 31 C 4.6471 3.8082 0.0 0
M  V30 32 S 3.1471 3.8082 0.0 0
M  V30 33 O 12.321 -11.8488 0.0 0
M  V30 34 C 14.1581 -10.0117 0.0 0
M  V30 35 N 5.5287 5.0217 0.0 0
M  V30 36 O 15.2188 -11.0723 0.0 0
M  V30 END ATOM
M  V30 BEGIN BOND
M  V30 1 1 2 1 CFG=3
M  V30 2 1 1 3
M  V30 3 1 2 4
M  V30 4 1 2 5
M  V30 5 1 3 6
M  V30 6 1 4 7
M  V30 7 1 4 8
M  V30 8 1 5 9 CFG=3
M  V30 9 1 6 10
M  V30 10 1 7 11
M  V30 11 2 8 12
M  V30 12 1 9 13
M  V30 13 1 10 14
M  V30 14 2 11 15
M  V30 15 1 11 16
M  V30 16 2 13 17
M  V30 17 1 13 18
M  V30 18 1 14 19
M  V30 19 2 18 20
M  V30 20 1 18 21
M  V30 21 2 19 22
M  V30 22 1 19 23
M  V30 23 1 20 24
M  V30 24 1 21 25
M  V30 25 2 21 26
M  V30 26 1 22 27
M  V30 27 1 23 28
M  V30 28 1 23 29
M  V30 29 1 24 30
M  V30 30 2 25 31
M  V30 31 1 26 32
M  V30 32 2 27 33
M  V30 33 1 27 34
M  V30 34 1 31 35
M  V30 35 2 34 36
M  V30 36 1 5 8
M  V30 37 2 6 7
M  V30 38 1 28 34
M  V30 39 1 31 32
M  V30 END BOND
M  V30 BEGIN COLLECTION
M  V30 MDLV30/STEABS ATOMS=(2 2 5)
M  V30 END COLLECTION
M  V30 END CTAB
M  END
>  <Drug Name>
Ceftriaxone

>  <Carbon Count>
18

>  <SMILES String>
O=C(O)C(N1[C@@]([H])([C@@H](C1=O)NC(/C(C2=CSC(N)=N2)=N/OC)=O)SC3)=C3CSC(N(NC4=O)C)=NC4=O

$$$$
Piperacillin
Actelion Java MolfileCreator 2.0

  0  0  0  0  0  0              0 V3000
M  V30 BEGIN CTAB
M  V30 COUNTS 36 39 0 0 0
M  V30 BEGIN ATOM
M  V30 1 S 8.1039 -3.6968 0.0 0
M  V30 2 C 9.5043 -4.2343 0.0 0
M  V30 3 C 8.1824 -2.1988 0.0 0 CFG=1
M  V30 4 C 10.4483 -3.0686 0.0 0 CFG=1
M  V30 5 C 9.116 -5.6832 0.0 0
M  V30 6 C 10.5649 -5.295 0.0 0
M  V30 7 N 9.6313 -1.8106 0.0 0
M  V30 8 C 7.7942 -0.75 0.0 0 CFG=1
M  V30 9 C 11.9462 -3.1471 0.0 0
M  V30 10 C 9.2431 -0.3617 0.0 0
M  V30 11 N 6.4951 0.0 0.0 0
M  V30 12 O 12.6272 -4.4836 0.0 0
M  V30 13 O 12.7632 -1.8891 0.0 0
M  V30 14 O 9.9931 0.9372 0.0 0
M  V30 15 C 5.1961 -0.75 0.0 0
M  V30 16 O 5.1961 -2.25 0.0 0
M  V30 17 C 3.8971 0.0 0.0 0 CFG=2
M  V30 18 N 2.598 -0.75 0.0 0
M  V30 19 C 3.8971 1.5 0.0 0
M  V30 20 C 1.299 0.0 0.0 0
M  V30 21 C 5.1961 2.25 0.0 0
M  V30 22 C 2.598 2.25 0.0 0
M  V30 23 O 1.299 1.5 0.0 0
M  V30 24 N 0.0 -0.75 0.0 0
M  V30 25 C 5.1961 3.75 0.0 0
M  V30 26 C 2.598 3.75 0.0 0
M  V30 27 C -1.299 0.0 0.0 0
M  V30 28 C 0.0 -2.25 0.0 0
M  V30 29 C 3.8971 4.5 0.0 0
M  V30 30 O -1.299 1.5 0.0 0
M  V30 31 C -2.598 -0.75 0.0 0
M  V30 32 C -1.299 -3.0 0.0 0
M  V30 33 O -3.8971 0.0 0.0 0
M  V30 34 N -2.598 -2.25 0.0 0
M  V30 35 C -3.8971 -3.0 0.0 0
M  V30 36 C -3.8971 -4.5 0.0 0
M  V30 END ATOM
M  V30 BEGIN BOND
M  V30 1 1 1 2
M  V30 2 1 3 1 CFG=3
M  V30 3 1 2 4
M  V30 4 1 2 5
M  V30 5 1 2 6
M  V30 6 1 3 7
M  V30 7 1 3 8
M  V30 8 1 4 9 CFG=1
M  V30 9 1 7 10
M  V30 10 1 8 11 CFG=3
M  V30 11 2 9 12
M  V30 12 1 9 13
M  V30 13 2 10 14
M  V30 14 1 11 15
M  V30 15 2 15 16
M  V30 16 1 15 17
M  V30 17 1 17 18 CFG=3
M  V30 18 1 17 19
M  V30 19 1 18 20
M  V30 20 2 19 21
M  V30 21 1 19 22
M  V30 22 2 20 23
M  V30 23 1 20 24
M  V30 24 1 21 25
M  V30 25 2 22 26
M  V30 26 1 24 27
M  V30 27 1 24 28
M  V30 28 2 25 29
M  V30 29 2 27 30
M  V30 30 1 27 31
M  V30 31 1 28 32
M  V30 32 2 31 33
M  V30 33 1 31 34
M  V30 34 1 34 35
M  V30 35 1 35 36
M  V30 36 1 4 7
M  V30 37 1 8 10
M  V30 38 1 26 29
M  V30 39 1 32 34
M  V30 END BOND
M  V30 BEGIN COLLECTION
M  V30 MDLV30/STEABS ATOMS=(4 3 4 8 17)
M  V30 END COLLECTION
M  V30 END CTAB
M  END
>  <Drug Name>
Piperacillin

>  <Carbon Count>
23

>  <SMILES String>
CC1(C)[C@H](C(O)=O)N2C([C@@H](NC([C@@H](C3=CC=CC=C3)NC(N4C(C(N(CC)CC4)=O)=O)=O)=O)[C@@]2([H])S1)=O

$$$$
Ceftazidime
Actelion Java MolfileCreator 2.0

  0  0  0  0  0  0              0 V3000
M  V30 BEGIN CTAB
M  V30 COUNTS 37 40 0 0 0
M  V30 BEGIN ATOM
M  V30 1 S 10.3923 -3.6477 0.0 0
M  V30 2 C 10.7805 -2.1988 0.0 0 CFG=1
M  V30 3 C 11.4529 -4.7084 0.0 0
M  V30 4 N 12.2294 -1.8106 0.0 0
M  V30 5 C 10.3923 -0.75 0.0 0 CFG=1
M  V30 6 C 12.9018 -4.3202 0.0 0
M  V30 7 C 13.29 -2.8713 0.0 0
M  V30 8 C 11.8412 -0.3617 0.0 0
M  V30 9 N 9.0932 0.0 0.0 0
M  V30 10 C 13.9625 -5.3808 0.0 0
M  V30 11 C 14.7389 -2.483 0.0 0
M  V30 12 O 12.5912 0.9372 0.0 0
M  V30 13 C 7.7942 -0.75 0.0 0
M  V30 14 N 13.5743 -6.8297 0.0 0 CHG=1
M  V30 15 O 15.7996 -3.5437 0.0 0
M  V30 16 O 15.1272 -1.0342 0.0 0 CHG=-1
M  V30 17 O 7.7942 -2.25 0.0 0
M  V30 18 C 6.4951 0.0 0.0 0
M  V30 19 C 14.6349 -7.8904 0.0 0
M  V30 20 C 12.1254 -7.2179 0.0 0
M  V30 21 N 5.1961 -0.75 0.0 0
M  V30 22 C 6.4951 1.5 0.0 0
M  V30 23 C 14.2467 -9.3393 0.0 0
M  V30 24 C 11.7371 -8.6668 0.0 0
M  V30 25 O 5.1961 -2.25 0.0 0
M  V30 26 N 7.7087 2.3816 0.0 0
M  V30 27 C 5.2816 2.3816 0.0 0
M  V30 28 C 12.7978 -9.7275 0.0 0
M  V30 29 C 3.8971 -3.0 0.0 0
M  V30 30 C 7.2451 3.8082 0.0 0
M  V30 31 S 5.7451 3.8082 0.0 0
M  V30 32 C 3.8971 -4.5 0.0 0
M  V30 33 C 2.3971 -3.0 0.0 0
M  V30 34 C 3.1471 -1.7009 0.0 0
M  V30 35 N 8.1268 5.0217 0.0 0
M  V30 36 O 5.1961 -5.25 0.0 0
M  V30 37 O 2.598 -5.25 0.0 0
M  V30 END ATOM
M  V30 BEGIN BOND
M  V30 1 1 2 1 CFG=3
M  V30 2 1 1 3
M  V30 3 1 2 4
M  V30 4 1 2 5
M  V30 5 1 3 6
M  V30 6 1 4 7
M  V30 7 1 4 8
M  V30 8 1 5 9 CFG=3
M  V30 9 1 6 10
M  V30 10 1 7 11
M  V30 11 2 8 12
M  V30 12 1 9 13
M  V30 13 1 10 14
M  V30 14 2 11 15
M  V30 15 1 11 16
M  V30 16 2 13 17
M  V30 17 1 13 18
M  V30 18 2 14 19
M  V30 19 1 14 20
M  V30 20 2 18 21
M  V30 21 1 18 22
M  V30 22 1 19 23
M  V30 23 2 20 24
M  V30 24 1 21 25
M  V30 25 1 22 26
M  V30 26 2 22 27
M  V30 27 2 23 28
M  V30 28 1 25 29
M  V30 29 2 26 30
M  V30 30 1 27 31
M  V30 31 1 29 32
M  V30 32 1 29 33
M  V30 33 1 29 34
M  V30 34 1 30 35
M  V30 35 2 32 36
M  V30 36 1 32 37
M  V30 37 1 5 8
M  V30 38 2 6 7
M  V30 39 1 24 28
M  V30 40 1 30 31
M  V30 END BOND
M  V30 BEGIN COLLECTION
M  V30 MDLV30/STEABS ATOMS=(2 2 5)
M  V30 END COLLECTION
M  V30 END CTAB
M  END
>  <Drug Name>
Ceftazidime

>  <Carbon Count>
22

>  <SMILES String>
O=C([O-])C(N1[C@@]([H])([C@@H](C1=O)NC(/C(C2=CSC(N)=N2)=N/OC(C)(C(O)=O)C)=O)SC3)=C3C[N+]4=CC=CC=C4

$$$$
Fexofenadine
Actelion Java MolfileCreator 2.0

  0  0  0  0  0  0              0 V3000
M  V30 BEGIN CTAB
M  V30 COUNTS 37 40 0 0 0
M  V30 BEGIN ATOM
M  V30 1 O 13.1681 2.2807 0.0 0
M  V30 2 C 11.8513 1.5205 0.0 0
M  V30 3 O 11.8513 0.0 0.0 0
M  V30 4 C 10.5345 2.2807 0.0 0
M  V30 5 C 9.2177 1.5205 0.0 0
M  V30 6 C 11.2947 3.5975 0.0 0
M  V30 7 C 9.7742 3.5975 0.0 0
M  V30 8 C 7.9008 2.2807 0.0 0
M  V30 9 C 9.2177 0.0 0.0 0
M  V30 10 C 6.584 1.5205 0.0 0
M  V30 11 C 7.9008 -0.7602 0.0 0
M  V30 12 C 6.584 0.0 0.0 0
M  V30 13 C 5.2672 -0.7602 0.0 0 CFG=1
M  V30 14 O 5.2672 -2.2807 0.0 0
M  V30 15 C 3.9504 0.0 0.0 0
M  V30 16 C 2.6336 -0.7602 0.0 0
M  V30 17 C 1.3168 0.0 0.0 0
M  V30 18 N 0.0 -0.7602 0.0 0
M  V30 19 C -1.3168 0.0 0.0 0
M  V30 20 C 0.0 -2.2807 0.0 0
M  V30 21 C -2.6336 -0.7602 0.0 0
M  V30 22 C -1.408 -2.8699 0.0 0
M  V30 23 C -2.6336 -2.2807 0.0 0
M  V30 24 C -3.9504 -3.041 0.0 0
M  V30 25 O -5.2672 -2.2807 0.0 0
M  V30 26 C -2.6336 -3.8013 0.0 0
M  V30 27 C -3.9504 -4.5615 0.0 0
M  V30 28 C -2.4436 -5.2981 0.0 0
M  V30 29 C -1.0709 -3.3307 0.0 0
M  V30 30 C -5.2672 -5.3218 0.0 0
M  V30 31 C -3.0137 -5.3218 0.0 0
M  V30 32 C -1.3168 -6.0821 0.0 0
M  V30 33 C 0.0 -3.8013 0.0 0
M  V30 34 C -5.2672 -6.8423 0.0 0
M  V30 35 C -2.6336 -6.8423 0.0 0
M  V30 36 C 0.0 -5.3218 0.0 0
M  V30 37 C -3.9504 -7.6026 0.0 0
M  V30 END ATOM
M  V30 BEGIN BOND
M  V30 1 2 1 2
M  V30 2 1 2 3
M  V30 3 1 2 4
M  V30 4 1 4 5
M  V30 5 1 4 6
M  V30 6 1 4 7
M  V30 7 2 5 8
M  V30 8 1 5 9
M  V30 9 1 8 10
M  V30 10 2 9 11
M  V30 11 2 10 12
M  V30 12 1 12 13
M  V30 13 1 13 14 CFG=1
M  V30 14 1 13 15
M  V30 15 1 15 16
M  V30 16 1 16 17
M  V30 17 1 17 18
M  V30 18 1 18 19
M  V30 19 1 18 20
M  V30 20 1 19 21
M  V30 21 1 20 22
M  V30 22 1 21 23
M  V30 23 1 23 24
M  V30 24 1 24 25
M  V30 25 1 24 26
M  V30 26 1 24 27
M  V30 27 2 26 28
M  V30 28 1 26 29
M  V30 29 2 27 30
M  V30 30 1 27 31
M  V30 31 1 28 32
M  V30 32 2 29 33
M  V30 33 1 30 34
M  V30 34 2 31 35
M  V30 35 2 32 36
M  V30 36 2 34 37
M  V30 37 1 11 12
M  V30 38 1 22 23
M  V30 39 1 33 36
M  V30 40 1 35 37
M  V30 END BOND
M  V30 BEGIN COLLECTION
M  V30 MDLV30/STERAC1 ATOMS=(1 13)
M  V30 END COLLECTION
M  V30 END CTAB
M  END
>  <Drug Name>
Fexofenadine

>  <Carbon Count>
32

>  <SMILES String>
OC(C1=CC=C(C(C)(C)C(O)=O)C=C1)CCCN2CCC(C(C3=CC=CC=C3)(O)C4=CC=CC=C4)CC2

$$$$
Dutasteride
Actelion Java MolfileCreator 2.0

  0  0  0  0  0  0              0 V3000
M  V30 BEGIN CTAB
M  V30 COUNTS 37 41 0 0 0
M  V30 BEGIN ATOM
M  V30 1 F 2.4641 -1.4999 0.0 0
M  V30 2 C 3.4641 -1.4999 0.0 0
M  V30 3 F 3.4641 -2.4999 0.0 0
M  V30 4 F 4.4641 -1.4999 0.0 0
M  V30 5 C 3.4641 -0.4999 0.0 0
M  V30 6 C 2.598 0.0 0.0 0
M  V30 7 C 4.3301 0.0 0.0 0
M  V30 8 N 1.732 -0.5 0.0 0
M  V30 9 C 2.598 1.0 0.0 0
M  V30 10 C 4.3301 1.0 0.0 0
M  V30 11 C 0.866 0.0 0.0 0
M  V30 12 C 3.4641 1.5 0.0 0
M  V30 13 O 0.866 1.0 0.0 0
M  V30 14 C 0.0 -0.5 0.0 0 CFG=2
M  V30 15 C 3.4641 2.5 0.0 0
M  V30 16 C -0.9135 -0.0932 0.0 0 CFG=2
M  V30 17 C -0.1045 -1.4945 0.0 0
M  V30 18 F 4.4641 2.5 0.0 0
M  V30 19 F 3.4641 3.5 0.0 0
M  V30 20 F 2.4641 2.5 0.0 0
M  V30 21 C -1.5826 -0.8364 0.0 0 CFG=1
M  V30 22 C -1.2225 0.8577 0.0 0
M  V30 23 C -0.1704 0.5758 0.0 0
M  V30 24 C -1.0826 -1.7024 0.0 0
M  V30 25 C -2.5608 -0.6284 0.0 0 CFG=1
M  V30 26 C -2.2007 1.0657 0.0 0
M  V30 27 C -2.8698 0.3225 0.0 0 CFG=2
M  V30 28 C -3.2299 -1.3716 0.0 0
M  V30 29 C -3.8479 0.5304 0.0 0 CFG=1
M  V30 30 C -4.2081 -1.1637 0.0 0
M  V30 31 C -4.157 1.4815 0.0 0
M  V30 32 C -4.5171 -0.2126 0.0 0 CFG=1
M  V30 33 C -3.1788 1.2736 0.0 0
M  V30 34 C -5.1351 1.6894 0.0 0
M  V30 35 N -5.4952 -0.0047 0.0 0
M  V30 36 C -5.8042 0.9462 0.0 0
M  V30 37 O -6.7824 1.1542 0.0 0
M  V30 END ATOM
M  V30 BEGIN BOND
M  V30 1 1 1 2
M  V30 2 1 2 3
M  V30 3 1 2 4
M  V30 4 1 2 5
M  V30 5 2 5 6
M  V30 6 1 5 7
M  V30 7 1 6 8
M  V30 8 1 6 9
M  V30 9 2 7 10
M  V30 10 1 8 11
M  V30 11 2 9 12
M  V30 12 2 11 13
M  V30 13 1 14 11 CFG=1
M  V30 14 1 12 15
M  V30 15 1 14 16
M  V30 16 1 14 17
M  V30 17 1 15 18
M  V30 18 1 15 19
M  V30 19 1 15 20
M  V30 20 1 16 21
M  V30 21 1 16 22
M  V30 22 1 16 23 CFG=1
M  V30 23 1 17 24
M  V30 24 1 21 25
M  V30 25 1 22 26
M  V30 26 1 25 27
M  V30 27 1 25 28 CFG=3
M  V30 28 1 27 29
M  V30 29 1 28 30
M  V30 30 1 29 31
M  V30 31 1 29 32
M  V30 32 1 29 33 CFG=1
M  V30 33 2 31 34
M  V30 34 1 32 35 CFG=1
M  V30 35 1 34 36
M  V30 36 2 36 37
M  V30 37 1 10 12
M  V30 38 1 21 24 CFG=1
M  V30 39 1 27 26 CFG=1
M  V30 40 1 30 32
M  V30 41 1 35 36
M  V30 END BOND
M  V30 BEGIN COLLECTION
M  V30 MDLV30/STEABS ATOMS=(7 14 16 21 25 27 29 32)
M  V30 END COLLECTION
M  V30 END CTAB
M  END
>  <Drug Name>
Dutasteride

>  <Carbon Count>
27

>  <SMILES String>
O=C(NC1=CC(C(F)(F)F)=CC=C1C(F)(F)F)[C@@H]2[C@](CC3)(C)[C@](CC2)([H])[C@@](CC4)([H])[C@@]3([H])[C@@]5(C)C=CC(N[C@@]54[H])=O

$$$$
Tezacaftor
Actelion Java MolfileCreator 2.0

  0  0  0  0  0  0              0 V3000
M  V30 BEGIN CTAB
M  V30 COUNTS 37 41 0 0 0
M  V30 BEGIN ATOM
M  V30 1 F 3.8123 -5.9028 0.0 0
M  V30 2 C 4.8169 -4.7871 0.0 0
M  V30 3 C 6.2853 -5.0993 0.0 0
M  V30 4 C 4.3529 -3.3593 0.0 0
M  V30 5 N 6.7154 -6.5151 0.0 0
M  V30 6 C 7.2899 -3.9836 0.0 0
M  V30 7 C 5.3575 -2.2437 0.0 0
M  V30 8 C 5.7447 -7.6428 0.0 0
M  V30 9 C 6.826 -2.5558 0.0 0
M  V30 10 N 5.2006 -0.7506 0.0 0
M  V30 11 O 4.2762 -7.3306 0.0 0
M  V30 12 C 6.2086 -9.0706 0.0 0
M  V30 13 C 7.5766 -1.2556 0.0 0
M  V30 14 C 6.5721 -0.14 0.0 0
M  V30 15 C 3.9004 0.0 0.0 0
M  V30 16 C 7.4677 -8.2529 0.0 0
M  V30 17 C 5.8965 -10.539 0.0 0
M  V30 18 C 7.3243 -10.0751 0.0 0
M  V30 19 C 6.8842 1.3284 0.0 0
M  V30 20 C 2.6003 -0.7506 0.0 0 CFG=2
M  V30 21 C 7.4061 -6.7597 0.0 0
M  V30 22 C 8.8054 -8.9345 0.0 0
M  V30 23 C 8.312 1.7923 0.0 0
M  V30 24 C 6.4203 2.7562 0.0 0
M  V30 25 C 5.4157 1.6405 0.0 0
M  V30 26 O 2.6003 -2.2519 0.0 0
M  V30 27 C 1.3001 0.0 0.0 0
M  V30 28 C 8.6482 -5.936 0.0 0
M  V30 29 C 10.0644 -8.1168 0.0 0
M  V30 30 O 8.6241 3.2608 0.0 0
M  V30 31 O 0.0 -0.7506 0.0 0
M  V30 32 O 8.8831 -4.4532 0.0 0
M  V30 33 C 9.9859 -6.6176 0.0 0
M  V30 34 C 10.3659 -4.2184 0.0 0
M  V30 35 O 11.0474 -5.556 0.0 0
M  V30 36 F 10.2873 -2.7192 0.0 0
M  V30 37 F 11.6249 -3.4007 0.0 0
M  V30 END ATOM
M  V30 BEGIN BOND
M  V30 1 1 1 2
M  V30 2 2 2 3
M  V30 3 1 2 4
M  V30 4 1 3 5
M  V30 5 1 3 6
M  V30 6 2 4 7
M  V30 7 1 5 8
M  V30 8 2 6 9
M  V30 9 1 7 10
M  V30 10 2 8 11
M  V30 11 1 8 12
M  V30 12 1 9 13
M  V30 13 1 10 14
M  V30 14 1 10 15
M  V30 15 1 12 16
M  V30 16 1 12 17
M  V30 17 1 12 18
M  V30 18 1 14 19
M  V30 19 1 15 20
M  V30 20 2 16 21
M  V30 21 1 16 22
M  V30 22 1 19 23
M  V30 23 1 19 24
M  V30 24 1 19 25
M  V30 25 1 20 26 CFG=3
M  V30 26 1 20 27
M  V30 27 1 21 28
M  V30 28 2 22 29
M  V30 29 1 23 30
M  V30 30 1 27 31
M  V30 31 1 28 32
M  V30 32 2 28 33
M  V30 33 1 32 34
M  V30 34 1 33 35
M  V30 35 1 34 36
M  V30 36 1 34 37
M  V30 37 1 7 9
M  V30 38 2 13 14
M  V30 39 1 17 18
M  V30 40 1 29 33
M  V30 41 1 34 35
M  V30 END BOND
M  V30 BEGIN COLLECTION
M  V30 MDLV30/STERAC1 ATOMS=(1 20)
M  V30 END COLLECTION
M  V30 END CTAB
M  END
>  <Drug Name>
Tezacaftor

>  <Carbon Count>
26

>  <SMILES String>
O=C(C1(C2=CC=C(OC(F)(F)O3)C3=C2)CC1)NC4=CC5=C(N(C[C@@H](O)CO)C(C(C)(C)CO)=C5)C=C4F

$$$$
Trametinib
Actelion Java MolfileCreator 2.0

  0  0  0  0  0  0              0 V3000
M  V30 BEGIN CTAB
M  V30 COUNTS 37 41 0 0 0
M  V30 BEGIN ATOM
M  V30 1 I -1.732 7.4999 0.0 0
M  V30 2 C -0.866 7.0 0.0 0
M  V30 3 C 0.0 7.5 0.0 0
M  V30 4 C -0.866 6.0 0.0 0
M  V30 5 C 0.866 7.0 0.0 0
M  V30 6 C 0.0 5.5 0.0 0
M  V30 7 F 1.732 7.5 0.0 0
M  V30 8 C 0.866 5.9999 0.0 0
M  V30 9 N 1.732 5.4999 0.0 0
M  V30 10 C 1.732 4.4999 0.0 0
M  V30 11 N 0.866 3.9999 0.0 0
M  V30 12 C 2.598 4.0 0.0 0
M  V30 13 C 0.866 2.9999 0.0 0
M  V30 14 C 0.0 4.4999 0.0 0
M  V30 15 C 3.4641 4.5 0.0 0
M  V30 16 C 2.598 3.0 0.0 0
M  V30 17 O 0.0 2.4999 0.0 0
M  V30 18 C 1.732 2.4999 0.0 0
M  V30 19 O 3.4641 5.5 0.0 0
M  V30 20 N 4.3301 4.0 0.0 0
M  V30 21 N 3.4641 2.5 0.0 0
M  V30 22 C 1.732 1.4999 0.0 0
M  V30 23 C 4.3301 3.0 0.0 0
M  V30 24 C 5.1961 4.5 0.0 0
M  V30 25 C 3.4641 1.5 0.0 0
M  V30 26 O 5.1961 2.5 0.0 0
M  V30 27 C 6.1961 4.5 0.0 0
M  V30 28 C 5.6961 5.366 0.0 0
M  V30 29 C 2.598 1.0 0.0 0
M  V30 30 C 4.3301 1.0 0.0 0
M  V30 31 C 2.598 0.0 0.0 0
M  V30 32 C 4.3301 0.0 0.0 0
M  V30 33 N 1.732 -0.5 0.0 0
M  V30 34 C 3.4641 -0.4999 0.0 0
M  V30 35 C 0.866 0.0 0.0 0
M  V30 36 O 0.866 1.0 0.0 0
M  V30 37 C 0.0 -0.5 0.0 0
M  V30 END ATOM
M  V30 BEGIN BOND
M  V30 1 1 1 2
M  V30 2 2 2 3
M  V30 3 1 2 4
M  V30 4 1 3 5
M  V30 5 2 4 6
M  V30 6 1 5 7
M  V30 7 2 5 8
M  V30 8 1 8 9
M  V30 9 1 9 10
M  V30 10 1 10 11
M  V30 11 2 10 12
M  V30 12 1 11 13
M  V30 13 1 11 14
M  V30 14 1 12 15
M  V30 15 1 12 16
M  V30 16 2 13 17
M  V30 17 1 13 18
M  V30 18 2 15 19
M  V30 19 1 15 20
M  V30 20 1 16 21
M  V30 21 1 18 22
M  V30 22 1 20 23
M  V30 23 1 20 24
M  V30 24 1 21 25
M  V30 25 2 23 26
M  V30 26 1 24 27
M  V30 27 1 24 28
M  V30 28 2 25 29
M  V30 29 1 25 30
M  V30 30 1 29 31
M  V30 31 2 30 32
M  V30 32 1 31 33
M  V30 33 2 31 34
M  V30 34 1 33 35
M  V30 35 2 35 36
M  V30 36 1 35 37
M  V30 37 1 6 8
M  V30 38 2 16 18
M  V30 39 1 21 23
M  V30 40 1 27 28
M  V30 41 1 32 34
M  V30 END BOND
M  V30 END CTAB
M  END
>  <Drug Name>
Trametinib

>  <Carbon Count>
26

>  <SMILES String>
CN1C(C(C)=C2N(C3=CC(NC(C)=O)=CC=C3)C(N(C(C2=C1NC4=CC=C(C=C4F)I)=O)C5CC5)=O)=O

$$$$
Trametinib
Actelion Java MolfileCreator 2.0

  0  0  0  0  0  0              0 V3000
M  V30 BEGIN CTAB
M  V30 COUNTS 37 41 0 0 0
M  V30 BEGIN ATOM
M  V30 1 I -1.732 7.4999 0.0 0
M  V30 2 C -0.866 7.0 0.0 0
M  V30 3 C 0.0 7.5 0.0 0
M  V30 4 C -0.866 6.0 0.0 0
M  V30 5 C 0.866 7.0 0.0 0
M  V30 6 C 0.0 5.5 0.0 0
M  V30 7 F 1.732 7.5 0.0 0
M  V30 8 C 0.866 5.9999 0.0 0
M  V30 9 N 1.732 5.4999 0.0 0
M  V30 10 C 1.732 4.4999 0.0 0
M  V30 11 N 0.866 3.9999 0.0 0
M  V30 12 C 2.598 4.0 0.0 0
M  V30 13 C 0.866 2.9999 0.0 0
M  V30 14 C 0.0 4.4999 0.0 0
M  V30 15 C 3.4641 4.5 0.0 0
M  V30 16 C 2.598 3.0 0.0 0
M  V30 17 O 0.0 2.4999 0.0 0
M  V30 18 C 1.732 2.4999 0.0 0
M  V30 19 O 3.4641 5.5 0.0 0
M  V30 20 N 4.3301 4.0 0.0 0
M  V30 21 N 3.4641 2.5 0.0 0
M  V30 22 C 1.732 1.4999 0.0 0
M  V30 23 C 4.3301 3.0 0.0 0
M  V30 24 C 5.1961 4.5 0.0 0
M  V30 25 C 3.4641 1.5 0.0 0
M  V30 26 O 5.1961 2.5 0.0 0
M  V30 27 C 6.1961 4.5 0.0 0
M  V30 28 C 5.6961 5.366 0.0 0
M  V30 29 C 2.598 1.0 0.0 0
M  V30 30 C 4.3301 1.0 0.0 0
M  V30 31 C 2.598 0.0 0.0 0
M  V30 32 C 4.3301 0.0 0.0 0
M  V30 33 N 1.732 -0.5 0.0 0
M  V30 34 C 3.4641 -0.4999 0.0 0
M  V30 35 C 0.866 0.0 0.0 0
M  V30 36 O 0.866 1.0 0.0 0
M  V30 37 C 0.0 -0.5 0.0 0
M  V30 END ATOM
M  V30 BEGIN BOND
M  V30 1 1 1 2
M  V30 2 2 2 3
M  V30 3 1 2 4
M  V30 4 1 3 5
M  V30 5 2 4 6
M  V30 6 1 5 7
M  V30 7 2 5 8
M  V30 8 1 8 9
M  V30 9 1 9 10
M  V30 10 1 10 11
M  V30 11 2 10 12
M  V30 12 1 11 13
M  V30 13 1 11 14
M  V30 14 1 12 15
M  V30 15 1 12 16
M  V30 16 2 13 17
M  V30 17 1 13 18
M  V30 18 2 15 19
M  V30 19 1 15 20
M  V30 20 1 16 21
M  V30 21 1 18 22
M  V30 22 1 20 23
M  V30 23 1 20 24
M  V30 24 1 21 25
M  V30 25 2 23 26
M  V30 26 1 24 27
M  V30 27 1 24 28
M  V30 28 2 25 29
M  V30 29 1 25 30
M  V30 30 1 29 31
M  V30 31 2 30 32
M  V30 32 1 31 33
M  V30 33 2 31 34
M  V30 34 1 33 35
M  V30 35 2 35 36
M  V30 36 1 35 37
M  V30 37 1 6 8
M  V30 38 2 16 18
M  V30 39 1 21 23
M  V30 40 1 27 28
M  V30 41 1 32 34
M  V30 END BOND
M  V30 END CTAB
M  END
>  <Drug Name>
Trametinib

>  <Carbon Count>
26

>  <SMILES String>
CN1C(C(C)=C2N(C3=CC(NC(C)=O)=CC=C3)C(N(C(C2=C1NC4=CC=C(C=C4F)I)=O)C5CC5)=O)=O

$$$$
Trametinib
Actelion Java MolfileCreator 2.0

  0  0  0  0  0  0              0 V3000
M  V30 BEGIN CTAB
M  V30 COUNTS 37 41 0 0 0
M  V30 BEGIN ATOM
M  V30 1 I -1.732 7.4999 0.0 0
M  V30 2 C -0.866 7.0 0.0 0
M  V30 3 C 0.0 7.5 0.0 0
M  V30 4 C -0.866 6.0 0.0 0
M  V30 5 C 0.866 7.0 0.0 0
M  V30 6 C 0.0 5.5 0.0 0
M  V30 7 F 1.732 7.5 0.0 0
M  V30 8 C 0.866 5.9999 0.0 0
M  V30 9 N 1.732 5.4999 0.0 0
M  V30 10 C 1.732 4.4999 0.0 0
M  V30 11 N 0.866 3.9999 0.0 0
M  V30 12 C 2.598 4.0 0.0 0
M  V30 13 C 0.866 2.9999 0.0 0
M  V30 14 C 0.0 4.4999 0.0 0
M  V30 15 C 3.4641 4.5 0.0 0
M  V30 16 C 2.598 3.0 0.0 0
M  V30 17 O 0.0 2.4999 0.0 0
M  V30 18 C 1.732 2.4999 0.0 0
M  V30 19 O 3.4641 5.5 0.0 0
M  V30 20 N 4.3301 4.0 0.0 0
M  V30 21 N 3.4641 2.5 0.0 0
M  V30 22 C 1.732 1.4999 0.0 0
M  V30 23 C 4.3301 3.0 0.0 0
M  V30 24 C 5.1961 4.5 0.0 0
M  V30 25 C 3.4641 1.5 0.0 0
M  V30 26 O 5.1961 2.5 0.0 0
M  V30 27 C 6.1961 4.5 0.0 0
M  V30 28 C 5.6961 5.366 0.0 0
M  V30 29 C 2.598 1.0 0.0 0
M  V30 30 C 4.3301 1.0 0.0 0
M  V30 31 C 2.598 0.0 0.0 0
M  V30 32 C 4.3301 0.0 0.0 0
M  V30 33 N 1.732 -0.5 0.0 0
M  V30 34 C 3.4641 -0.4999 0.0 0
M  V30 35 C 0.866 0.0 0.0 0
M  V30 36 O 0.866 1.0 0.0 0
M  V30 37 C 0.0 -0.5 0.0 0
M  V30 END ATOM
M  V30 BEGIN BOND
M  V30 1 1 1 2
M  V30 2 2 2 3
M  V30 3 1 2 4
M  V30 4 1 3 5
M  V30 5 2 4 6
M  V30 6 1 5 7
M  V30 7 2 5 8
M  V30 8 1 8 9
M  V30 9 1 9 10
M  V30 10 1 10 11
M  V30 11 2 10 12
M  V30 12 1 11 13
M  V30 13 1 11 14
M  V30 14 1 12 15
M  V30 15 1 12 16
M  V30 16 2 13 17
M  V30 17 1 13 18
M  V30 18 2 15 19
M  V30 19 1 15 20
M  V30 20 1 16 21
M  V30 21 1 18 22
M  V30 22 1 20 23
M  V30 23 1 20 24
M  V30 24 1 21 25
M  V30 25 2 23 26
M  V30 26 1 24 27
M  V30 27 1 24 28
M  V30 28 2 25 29
M  V30 29 1 25 30
M  V30 30 1 29 31
M  V30 31 2 30 32
M  V30 32 1 31 33
M  V30 33 2 31 34
M  V30 34 1 33 35
M  V30 35 2 35 36
M  V30 36 1 35 37
M  V30 37 1 6 8
M  V30 38 2 16 18
M  V30 39 1 21 23
M  V30 40 1 27 28
M  V30 41 1 32 34
M  V30 END BOND
M  V30 END CTAB
M  END
>  <Drug Name>
Trametinib

>  <Carbon Count>
26

>  <SMILES String>
CN1C(C(C)=C2N(C3=CC(NC(C)=O)=CC=C3)C(N(C(C2=C1NC4=CC=C(C=C4F)I)=O)C5CC5)=O)=O

$$$$
Imatinib
Actelion Java MolfileCreator 2.0

  0  0  0  0  0  0              0 V3000
M  V30 BEGIN CTAB
M  V30 COUNTS 37 41 0 0 0
M  V30 BEGIN ATOM
M  V30 1 O 2.598 0.0 0.0 0
M  V30 2 C 1.732 -0.5 0.0 0
M  V30 3 N 0.866 0.0 0.0 0
M  V30 4 C 1.732 -1.5 0.0 0
M  V30 5 C 0.0 -0.5 0.0 0
M  V30 6 C 0.866 -1.9999 0.0 0
M  V30 7 C 2.598 -1.9999 0.0 0
M  V30 8 C -0.866 0.0 0.0 0
M  V30 9 C 0.0 -1.4999 0.0 0
M  V30 10 C 0.866 -2.9999 0.0 0
M  V30 11 C 2.598 -2.9999 0.0 0
M  V30 12 C -1.732 -0.4999 0.0 0
M  V30 13 C -0.866 -1.9999 0.0 0
M  V30 14 C 1.732 -3.4999 0.0 0
M  V30 15 N -2.598 0.0 0.0 0
M  V30 16 C -1.732 -1.4999 0.0 0
M  V30 17 C 1.732 -4.5 0.0 0
M  V30 18 C -3.4641 -0.4999 0.0 0
M  V30 19 C -2.598 -1.9999 0.0 0
M  V30 20 N 2.598 -4.9999 0.0 0
M  V30 21 N -4.3301 0.0 0.0 0
M  V30 22 N -3.4641 -1.4999 0.0 0
M  V30 23 C 2.598 -5.9999 0.0 0
M  V30 24 C 3.4641 -4.5 0.0 0
M  V30 25 C -5.1961 -0.4999 0.0 0
M  V30 26 C -4.3301 -1.9999 0.0 0
M  V30 27 C 3.4641 -6.4999 0.0 0
M  V30 28 C 4.3301 -5.0 0.0 0
M  V30 29 C -6.0621 0.0 0.0 0
M  V30 30 C -5.1961 -1.4999 0.0 0
M  V30 31 N 4.3301 -5.9999 0.0 0
M  V30 32 C -6.0621 1.0 0.0 0
M  V30 33 C -6.9282 -0.4999 0.0 0
M  V30 34 C 5.1961 -6.4999 0.0 0
M  V30 35 N -6.9282 1.5 0.0 0
M  V30 36 C -7.7942 0.0 0.0 0
M  V30 37 C -7.7942 1.0 0.0 0
M  V30 END ATOM
M  V30 BEGIN BOND
M  V30 1 2 1 2
M  V30 2 1 2 3
M  V30 3 1 2 4
M  V30 4 1 3 5
M  V30 5 2 4 6
M  V30 6 1 4 7
M  V30 7 2 5 8
M  V30 8 1 5 9
M  V30 9 1 6 10
M  V30 10 2 7 11
M  V30 11 1 8 12
M  V30 12 2 9 13
M  V30 13 2 10 14
M  V30 14 1 12 15
M  V30 15 2 12 16
M  V30 16 1 14 17
M  V30 17 1 15 18
M  V30 18 1 16 19
M  V30 19 1 17 20
M  V30 20 2 18 21
M  V30 21 1 18 22
M  V30 22 1 20 23
M  V30 23 1 20 24
M  V30 24 1 21 25
M  V30 25 2 22 26
M  V30 26 1 23 27
M  V30 27 1 24 28
M  V30 28 1 25 29
M  V30 29 2 25 30
M  V30 30 1 27 31
M  V30 31 2 29 32
M  V30 32 1 29 33
M  V30 33 1 31 34
M  V30 34 1 32 35
M  V30 35 2 33 36
M  V30 36 2 35 37
M  V30 37 1 11 14
M  V30 38 1 13 16
M  V30 39 1 26 30
M  V30 40 1 28 31
M  V30 41 1 36 37
M  V30 END BOND
M  V30 END CTAB
M  END
>  <Drug Name>
Imatinib

>  <Carbon Count>
29

>  <SMILES String>
CN1CCN(CC1)CC2=CC=C(C(NC3=CC(NC4=NC=CC(C5=CC=CN=C5)=N4)=C(C=C3)C)=O)C=C2

$$$$
Daunorubicin
Actelion Java MolfileCreator 2.0

  0  0  0  0  0  0              0 V3000
M  V30 BEGIN CTAB
M  V30 COUNTS 38 42 0 0 0
M  V30 BEGIN ATOM
M  V30 1 O 0.0 -1.4999 0.0 0
M  V30 2 C 0.866 -1.9999 0.0 0
M  V30 3 C 0.866 -2.9999 0.0 0
M  V30 4 C 1.732 -1.5 0.0 0
M  V30 5 C 0.0 -3.4999 0.0 0
M  V30 6 C 1.732 -3.5 0.0 0
M  V30 7 C 1.732 -0.5 0.0 0
M  V30 8 C 2.598 -1.9999 0.0 0
M  V30 9 O -0.866 -2.9999 0.0 0
M  V30 10 C 0.0 -4.5 0.0 0
M  V30 11 C 2.598 -3.0 0.0 0
M  V30 12 C 1.732 -4.5 0.0 0
M  V30 13 O 0.866 0.0 0.0 0
M  V30 14 C 2.598 0.0 0.0 0
M  V30 15 C 3.4641 -1.5 0.0 0
M  V30 16 C 0.866 -4.9999 0.0 0
M  V30 17 C -0.866 -5.0 0.0 0 CFG=1
M  V30 18 O 3.4641 -3.5 0.0 0
M  V30 19 O 2.598 -5.0 0.0 0
M  V30 20 C 0.0 -0.5 0.0 0
M  V30 21 C 3.4641 -0.5 0.0 0
M  V30 22 C 0.866 -5.9999 0.0 0
M  V30 23 O -1.732 -4.5 0.0 0
M  V30 24 C -0.866 -6.0 0.0 0
M  V30 25 C 0.0 -6.4999 0.0 0 CFG=1
M  V30 26 C -2.598 -5.0 0.0 0 CFG=2
M  V30 27 O -0.866 -7.0 0.0 0
M  V30 28 C 0.0 -7.4999 0.0 0
M  V30 29 O -3.4641 -4.5 0.0 0
M  V30 30 C -2.598 -6.0 0.0 0
M  V30 31 O 0.866 -8.0 0.0 0
M  V30 32 C -0.866 -7.9999 0.0 0
M  V30 33 C -4.3301 -5.0 0.0 0 CFG=2
M  V30 34 C -3.4641 -6.5 0.0 0 CFG=1
M  V30 35 C -4.3301 -6.0 0.0 0 CFG=2
M  V30 36 C -5.1961 -4.5 0.0 0
M  V30 37 N -3.4641 -7.5 0.0 0
M  V30 38 O -5.1961 -6.5 0.0 0
M  V30 END ATOM
M  V30 BEGIN BOND
M  V30 1 2 1 2
M  V30 2 1 2 3
M  V30 3 1 2 4
M  V30 4 2 3 5
M  V30 5 1 3 6
M  V30 6 2 4 7
M  V30 7 1 4 8
M  V30 8 1 5 9
M  V30 9 1 5 10
M  V30 10 1 6 11
M  V30 11 2 6 12
M  V30 12 1 7 13
M  V30 13 1 7 14
M  V30 14 2 8 15
M  V30 15 2 10 16
M  V30 16 1 10 17
M  V30 17 2 11 18
M  V30 18 1 12 19
M  V30 19 1 13 20
M  V30 20 2 14 21
M  V30 21 1 16 22
M  V30 22 1 17 23 CFG=3
M  V30 23 1 17 24
M  V30 24 1 22 25
M  V30 25 1 26 23 CFG=1
M  V30 26 1 25 27 CFG=3
M  V30 27 1 25 28
M  V30 28 1 26 29
M  V30 29 1 26 30
M  V30 30 2 28 31
M  V30 31 1 28 32
M  V30 32 1 29 33
M  V30 33 1 30 34
M  V30 34 1 33 35
M  V30 35 1 33 36 CFG=3
M  V30 36 1 34 37 CFG=3
M  V30 37 1 35 38 CFG=3
M  V30 38 1 8 11
M  V30 39 1 12 16
M  V30 40 1 15 21
M  V30 41 1 24 25
M  V30 42 1 34 35
M  V30 END BOND
M  V30 BEGIN COLLECTION
M  V30 MDLV30/STEABS ATOMS=(6 17 25 26 33 34 35)
M  V30 END COLLECTION
M  V30 END CTAB
M  END
>  <Drug Name>
Daunorubicin

>  <Carbon Count>
27

>  <SMILES String>
COC1=C2C(C(C(C(O)=C(C[C@@](O)(C(C)=O)C[C@@H]3O[C@@]4([H])C[C@H](N)[C@H](O)[C@H](C)O4)C3=C5O)=C5C2=O)=O)=CC=C1

$$$$
Daunorubicin
Actelion Java MolfileCreator 2.0

  0  0  0  0  0  0              0 V3000
M  V30 BEGIN CTAB
M  V30 COUNTS 38 42 0 0 0
M  V30 BEGIN ATOM
M  V30 1 O 0.0 -1.4999 0.0 0
M  V30 2 C 0.866 -1.9999 0.0 0
M  V30 3 C 0.866 -2.9999 0.0 0
M  V30 4 C 1.732 -1.5 0.0 0
M  V30 5 C 0.0 -3.4999 0.0 0
M  V30 6 C 1.732 -3.5 0.0 0
M  V30 7 C 1.732 -0.5 0.0 0
M  V30 8 C 2.598 -1.9999 0.0 0
M  V30 9 O -0.866 -2.9999 0.0 0
M  V30 10 C 0.0 -4.5 0.0 0
M  V30 11 C 2.598 -3.0 0.0 0
M  V30 12 C 1.732 -4.5 0.0 0
M  V30 13 O 0.866 0.0 0.0 0
M  V30 14 C 2.598 0.0 0.0 0
M  V30 15 C 3.4641 -1.5 0.0 0
M  V30 16 C 0.866 -4.9999 0.0 0
M  V30 17 C -0.866 -5.0 0.0 0 CFG=1
M  V30 18 O 3.4641 -3.5 0.0 0
M  V30 19 O 2.598 -5.0 0.0 0
M  V30 20 C 0.0 -0.5 0.0 0
M  V30 21 C 3.4641 -0.5 0.0 0
M  V30 22 C 0.866 -5.9999 0.0 0
M  V30 23 O -1.732 -4.5 0.0 0
M  V30 24 C -0.866 -6.0 0.0 0
M  V30 25 C 0.0 -6.4999 0.0 0 CFG=1
M  V30 26 C -2.598 -5.0 0.0 0 CFG=2
M  V30 27 O -0.866 -7.0 0.0 0
M  V30 28 C 0.0 -7.4999 0.0 0
M  V30 29 O -3.4641 -4.5 0.0 0
M  V30 30 C -2.598 -6.0 0.0 0
M  V30 31 O 0.866 -8.0 0.0 0
M  V30 32 C -0.866 -7.9999 0.0 0
M  V30 33 C -4.3301 -5.0 0.0 0 CFG=2
M  V30 34 C -3.4641 -6.5 0.0 0 CFG=1
M  V30 35 C -4.3301 -6.0 0.0 0 CFG=2
M  V30 36 C -5.1961 -4.5 0.0 0
M  V30 37 N -3.4641 -7.5 0.0 0
M  V30 38 O -5.1961 -6.5 0.0 0
M  V30 END ATOM
M  V30 BEGIN BOND
M  V30 1 2 1 2
M  V30 2 1 2 3
M  V30 3 1 2 4
M  V30 4 2 3 5
M  V30 5 1 3 6
M  V30 6 2 4 7
M  V30 7 1 4 8
M  V30 8 1 5 9
M  V30 9 1 5 10
M  V30 10 1 6 11
M  V30 11 2 6 12
M  V30 12 1 7 13
M  V30 13 1 7 14
M  V30 14 2 8 15
M  V30 15 2 10 16
M  V30 16 1 10 17
M  V30 17 2 11 18
M  V30 18 1 12 19
M  V30 19 1 13 20
M  V30 20 2 14 21
M  V30 21 1 16 22
M  V30 22 1 17 23 CFG=3
M  V30 23 1 17 24
M  V30 24 1 22 25
M  V30 25 1 26 23 CFG=1
M  V30 26 1 25 27 CFG=3
M  V30 27 1 25 28
M  V30 28 1 26 29
M  V30 29 1 26 30
M  V30 30 2 28 31
M  V30 31 1 28 32
M  V30 32 1 29 33
M  V30 33 1 30 34
M  V30 34 1 33 35
M  V30 35 1 33 36 CFG=3
M  V30 36 1 34 37 CFG=3
M  V30 37 1 35 38 CFG=3
M  V30 38 1 8 11
M  V30 39 1 12 16
M  V30 40 1 15 21
M  V30 41 1 24 25
M  V30 42 1 34 35
M  V30 END BOND
M  V30 BEGIN COLLECTION
M  V30 MDLV30/STEABS ATOMS=(6 17 25 26 33 34 35)
M  V30 END COLLECTION
M  V30 END CTAB
M  END
>  <Drug Name>
Daunorubicin

>  <Carbon Count>
27

>  <SMILES String>
COC1=C(C(C(C(O)=C([C@@H](O[C@H]2C[C@H](N)[C@@H](O)[C@H](C)O2)C[C@@](C(C)=O)(O)C3)C3=C4O)=C4C5=O)=O)C5=CC=C1

$$$$
Thonzonium Bromide
Actelion Java MolfileCreator 2.0

  0  0  0  0  0  0              0 V3000
M  V30 BEGIN CTAB
M  V30 COUNTS 38 38 0 0 0
M  V30 BEGIN ATOM
M  V30 1 Br 24.3336 -0.75 0.0 0 CHG=-1
M  V30 2 O 17.7846 9.6423 0.0 0
M  V30 3 C 18.5346 8.3432 0.0 0
M  V30 4 C 16.2846 9.6423 0.0 0
M  V30 5 C 17.7846 7.0442 0.0 0
M  V30 6 C 20.0346 8.3432 0.0 0
M  V30 7 C 18.5346 5.7451 0.0 0
M  V30 8 C 20.7846 7.0442 0.0 0
M  V30 9 C 20.0346 5.7451 0.0 0
M  V30 10 C 20.7846 4.4461 0.0 0
M  V30 11 N 20.0346 3.1471 0.0 0
M  V30 12 C 18.5346 3.1471 0.0 0
M  V30 13 C 20.7846 1.848 0.0 0
M  V30 14 N 17.7846 4.4461 0.0 0
M  V30 15 N 17.7846 1.848 0.0 0
M  V30 16 C 20.0346 0.549 0.0 0
M  V30 17 C 16.2846 4.4461 0.0 0
M  V30 18 C 16.2846 1.848 0.0 0
M  V30 19 N 20.7846 -0.75 0.0 0 CHG=1
M  V30 20 C 15.5346 3.1471 0.0 0
M  V30 21 C 20.0346 -2.049 0.0 0
M  V30 22 C 22.0836 -1.5 0.0 0
M  V30 23 C 22.0836 0.0 0.0 0
M  V30 24 C 20.7846 -3.348 0.0 0
M  V30 25 C 20.0346 -4.6471 0.0 0
M  V30 26 C 20.7846 -5.9461 0.0 0
M  V30 27 C 20.0346 -7.2451 0.0 0
M  V30 28 C 20.7846 -8.5442 0.0 0
M  V30 29 C 20.0346 -9.8432 0.0 0
M  V30 30 C 20.7846 -11.1423 0.0 0
M  V30 31 C 20.0346 -12.4413 0.0 0
M  V30 32 C 20.7846 -13.7403 0.0 0
M  V30 33 C 20.0346 -15.0394 0.0 0
M  V30 34 C 20.7846 -16.3384 0.0 0
M  V30 35 C 20.0346 -17.6375 0.0 0
M  V30 36 C 20.7846 -18.9365 0.0 0
M  V30 37 C 20.0346 -20.2355 0.0 0
M  V30 38 C 20.7846 -21.5346 0.0 0
M  V30 END ATOM
M  V30 BEGIN BOND
M  V30 1 1 2 3
M  V30 2 1 2 4
M  V30 3 2 3 5
M  V30 4 1 3 6
M  V30 5 1 5 7
M  V30 6 2 6 8
M  V30 7 2 7 9
M  V30 8 1 9 10
M  V30 9 1 10 11
M  V30 10 1 11 12
M  V30 11 1 11 13
M  V30 12 2 12 14
M  V30 13 1 12 15
M  V30 14 1 13 16
M  V30 15 1 14 17
M  V30 16 2 15 18
M  V30 17 1 16 19
M  V30 18 2 17 20
M  V30 19 1 19 21
M  V30 20 1 19 22
M  V30 21 1 19 23
M  V30 22 1 21 24
M  V30 23 1 24 25
M  V30 24 1 25 26
M  V30 25 1 26 27
M  V30 26 1 27 28
M  V30 27 1 28 29
M  V30 28 1 29 30
M  V30 29 1 30 31
M  V30 30 1 31 32
M  V30 31 1 32 33
M  V30 32 1 33 34
M  V30 33 1 34 35
M  V30 34 1 35 36
M  V30 35 1 36 37
M  V30 36 1 37 38
M  V30 37 1 8 9
M  V30 38 1 18 20
M  V30 END BOND
M  V30 END CTAB
M  END
>  <Drug Name>
Thonzonium Bromide

>  <Carbon Count>
32

>  <SMILES String>
COC1=CC=C(CN(CC[N+](C)(CCCCCCCCCCCCCCCC)C)C2=NC=CC=N2)C=C1.[Br-]

$$$$
Darunavir
Actelion Java MolfileCreator 2.0

  0  0  0  0  0  0              0 V3000
M  V30 BEGIN CTAB
M  V30 COUNTS 38 41 0 0 0
M  V30 BEGIN ATOM
M  V30 1 S 9.0932 1.5 0.0 0
M  V30 2 O 8.3432 0.201 0.0 0
M  V30 3 O 9.8432 0.201 0.0 0
M  V30 4 N 7.7942 2.25 0.0 0
M  V30 5 C 10.3923 2.25 0.0 0
M  V30 6 C 6.4951 1.5 0.0 0
M  V30 7 C 7.7942 3.75 0.0 0
M  V30 8 C 11.6913 1.5 0.0 0
M  V30 9 C 10.3923 3.75 0.0 0
M  V30 10 C 6.4951 0.0 0.0 0 CFG=1
M  V30 11 C 6.4951 4.5 0.0 0
M  V30 12 C 12.9903 2.25 0.0 0
M  V30 13 C 11.6913 4.5 0.0 0
M  V30 14 O 7.7942 -0.75 0.0 0
M  V30 15 C 5.1961 -0.75 0.0 0 CFG=1
M  V30 16 C 6.4951 6.0 0.0 0
M  V30 17 C 5.1961 3.75 0.0 0
M  V30 18 C 12.9903 3.75 0.0 0
M  V30 19 N 3.8971 0.0 0.0 0
M  V30 20 C 5.1961 -2.25 0.0 0
M  V30 21 N 14.2894 4.5 0.0 0
M  V30 22 C 3.8971 1.5 0.0 0
M  V30 23 C 3.8971 -3.0 0.0 0
M  V30 24 O 5.1961 2.25 0.0 0
M  V30 25 O 2.598 2.25 0.0 0
M  V30 26 C 3.8971 -4.5 0.0 0
M  V30 27 C 2.598 -2.25 0.0 0
M  V30 28 C 2.598 3.75 0.0 0 CFG=2
M  V30 29 C 2.598 -5.25 0.0 0
M  V30 30 C 1.299 -3.0 0.0 0
M  V30 31 C 1.3845 4.6316 0.0 0 CFG=1
M  V30 32 C 3.8116 4.6316 0.0 0
M  V30 33 C 1.299 -4.5 0.0 0
M  V30 34 C 1.848 6.0582 0.0 0 CFG=1
M  V30 35 C -0.1154 4.6316 0.0 0
M  V30 36 O 3.348 6.0582 0.0 0
M  V30 37 O 0.6345 6.9399 0.0 0
M  V30 38 C -0.5789 6.0582 0.0 0
M  V30 END ATOM
M  V30 BEGIN BOND
M  V30 1 2 1 2
M  V30 2 2 1 3
M  V30 3 1 1 4
M  V30 4 1 1 5
M  V30 5 1 4 6
M  V30 6 1 4 7
M  V30 7 2 5 8
M  V30 8 1 5 9
M  V30 9 1 6 10
M  V30 10 1 7 11
M  V30 11 1 8 12
M  V30 12 2 9 13
M  V30 13 1 10 14 CFG=1
M  V30 14 1 10 15
M  V30 15 1 11 16
M  V30 16 1 11 17
M  V30 17 2 12 18
M  V30 18 1 15 19 CFG=3
M  V30 19 1 15 20
M  V30 20 1 18 21
M  V30 21 1 19 22
M  V30 22 1 20 23
M  V30 23 2 22 24
M  V30 24 1 22 25
M  V30 25 2 23 26
M  V30 26 1 23 27
M  V30 27 1 28 25 CFG=3
M  V30 28 1 26 29
M  V30 29 2 27 30
M  V30 30 1 28 31
M  V30 31 1 28 32
M  V30 32 2 29 33
M  V30 33 1 31 34
M  V30 34 1 31 35 CFG=3
M  V30 35 1 32 36
M  V30 36 1 34 37 CFG=3
M  V30 37 1 35 38
M  V30 38 1 13 18
M  V30 39 1 30 33
M  V30 40 1 34 36
M  V30 41 1 37 38
M  V30 END BOND
M  V30 BEGIN COLLECTION
M  V30 MDLV30/STEABS ATOMS=(5 10 15 28 31 34)
M  V30 END COLLECTION
M  V30 END CTAB
M  END
>  <Drug Name>
Darunavir

>  <Carbon Count>
27

>  <SMILES String>
O=C(N[C@@H](CC1=CC=CC=C1)[C@H](O)CN(CC(C)C)S(C2=CC=C(N)C=C2)(=O)=O)O[C@@]3([H])CO[C@]4([H])[C@@]3([H])CCO4

$$$$
Telmisartan
Actelion Java MolfileCreator 2.0

  0  0  0  0  0  0              0 V3000
M  V30 BEGIN CTAB
M  V30 COUNTS 39 44 0 0 0
M  V30 BEGIN ATOM
M  V30 1 O 2.1138 -6.3267 0.0 0
M  V30 2 C 1.9059 -5.3485 0.0 0
M  V30 3 O 2.649 -4.6794 0.0 0
M  V30 4 C 0.9548 -5.0395 0.0 0
M  V30 5 C 0.7469 -4.0614 0.0 0
M  V30 6 C 0.2117 -5.7086 0.0 0
M  V30 7 C 1.49 -3.3922 0.0 0
M  V30 8 C -0.2041 -3.7523 0.0 0
M  V30 9 C -0.7393 -5.3996 0.0 0
M  V30 10 C 2.4411 -3.7012 0.0 0
M  V30 11 C 1.2821 -2.4141 0.0 0
M  V30 12 C -0.9472 -4.4215 0.0 0
M  V30 13 C 3.1843 -3.0321 0.0 0
M  V30 14 C 2.0253 -1.7449 0.0 0
M  V30 15 C 2.9763 -2.054 0.0 0
M  V30 16 C 3.7195 -1.3848 0.0 0
M  V30 17 N 3.5116 -0.4067 0.0 0
M  V30 18 C 4.1807 0.3364 0.0 0
M  V30 19 C 2.598 0.0 0.0 0
M  V30 20 C 3.6807 1.2024 0.0 0
M  V30 21 C 5.1807 0.3364 0.0 0
M  V30 22 N 2.7026 0.9945 0.0 0
M  V30 23 C 1.732 -0.5 0.0 0
M  V30 24 C 4.1807 2.0684 0.0 0
M  V30 25 C 5.6807 1.2024 0.0 0
M  V30 26 C 0.866 0.0 0.0 0
M  V30 27 C 5.1807 2.0684 0.0 0
M  V30 28 C 3.6807 2.9344 0.0 0
M  V30 29 C 6.6807 1.2024 0.0 0
M  V30 30 C 0.0 -0.5 0.0 0
M  V30 31 N 7.2685 0.3934 0.0 0
M  V30 32 N 7.2685 2.0114 0.0 0
M  V30 33 C 8.2195 0.7024 0.0 0
M  V30 34 C 8.2195 1.7024 0.0 0
M  V30 35 C 6.9595 2.9625 0.0 0
M  V30 36 C 9.0856 0.2024 0.0 0
M  V30 37 C 9.0856 2.2024 0.0 0
M  V30 38 C 9.9516 0.7024 0.0 0
M  V30 39 C 9.9516 1.7024 0.0 0
M  V30 END ATOM
M  V30 BEGIN BOND
M  V30 1 2 1 2
M  V30 2 1 2 3
M  V30 3 1 2 4
M  V30 4 2 4 5
M  V30 5 1 4 6
M  V30 6 1 5 7
M  V30 7 1 5 8
M  V30 8 2 6 9
M  V30 9 2 7 10
M  V30 10 1 7 11
M  V30 11 2 8 12
M  V30 12 1 10 13
M  V30 13 2 11 14
M  V30 14 2 13 15
M  V30 15 1 15 16
M  V30 16 1 16 17
M  V30 17 1 17 18
M  V30 18 1 17 19
M  V30 19 2 18 20
M  V30 20 1 18 21
M  V30 21 2 19 22
M  V30 22 1 19 23
M  V30 23 1 20 24
M  V30 24 2 21 25
M  V30 25 1 23 26
M  V30 26 2 24 27
M  V30 27 1 24 28
M  V30 28 1 25 29
M  V30 29 1 26 30
M  V30 30 2 29 31
M  V30 31 1 29 32
M  V30 32 1 31 33
M  V30 33 1 32 34
M  V30 34 1 32 35
M  V30 35 1 33 36
M  V30 36 1 34 37
M  V30 37 2 36 38
M  V30 38 2 37 39
M  V30 39 1 9 12
M  V30 40 1 14 15
M  V30 41 1 20 22
M  V30 42 1 25 27
M  V30 43 2 33 34
M  V30 44 1 38 39
M  V30 END BOND
M  V30 END CTAB
M  END
>  <Drug Name>
Telmisartan

>  <Carbon Count>
33

>  <SMILES String>
CCCC1=NC2=C(N1CC3=CC=C(C4=CC=CC=C4C(O)=O)C=C3)C=C(C5=NC6=CC=CC=C6N5C)C=C2C

$$$$
Fosinopril
Actelion Java MolfileCreator 2.0

  0  0  0  0  0  0              0 V3000
M  V30 BEGIN CTAB
M  V30 COUNTS 39 41 0 0 0
M  V30 BEGIN ATOM
M  V30 1 P 7.7942 -0.75 0.0 0 CFG=2
M  V30 2 O 9.0932 -1.5 0.0 0
M  V30 3 O 6.4951 0.0 0.0 0
M  V30 4 C 7.7942 -2.25 0.0 0
M  V30 5 C 9.0932 0.0 0.0 0
M  V30 6 C 6.4951 1.5 0.0 0 CFG=2
M  V30 7 C 6.4951 -2.9999 0.0 0
M  V30 8 C 9.0932 1.4999 0.0 0
M  V30 9 O 7.7942 2.25 0.0 0
M  V30 10 C 5.1961 2.25 0.0 0
M  V30 11 O 5.1961 -2.2499 0.0 0
M  V30 12 N 6.4951 -4.5 0.0 0
M  V30 13 C 10.3923 2.2499 0.0 0
M  V30 14 C 7.7942 3.75 0.0 0
M  V30 15 C 5.1961 3.75 0.0 0
M  V30 16 C 3.8971 1.5 0.0 0
M  V30 17 C 7.7087 -5.3816 0.0 0 CFG=2
M  V30 18 C 5.2816 -5.3816 0.0 0
M  V30 19 C 10.3923 3.75 0.0 0
M  V30 20 O 6.4951 4.5 0.0 0
M  V30 21 C 9.0932 4.5 0.0 0
M  V30 22 C 9.1353 -4.9181 0.0 0
M  V30 23 C 7.2451 -6.8082 0.0 0
M  V30 24 C 5.7451 -6.8082 0.0 0 CFG=1
M  V30 25 C 11.6913 4.4999 0.0 0
M  V30 26 C 9.0932 6.0 0.0 0
M  V30 27 O 9.4471 -3.4509 0.0 0
M  V30 28 O 10.25 -5.9218 0.0 0
M  V30 29 C 4.8635 -8.0217 0.0 0
M  V30 30 C 11.6913 5.9999 0.0 0
M  V30 31 C 12.9903 3.7499 0.0 0
M  V30 32 C 5.4736 -9.3921 0.0 0
M  V30 33 C 3.3717 -7.8649 0.0 0
M  V30 34 C 12.9903 6.7499 0.0 0
M  V30 35 C 14.2894 4.4999 0.0 0
M  V30 36 C 4.5919 -10.6056 0.0 0
M  V30 37 C 2.49 -9.0785 0.0 0
M  V30 38 C 14.2894 5.9999 0.0 0
M  V30 39 C 3.1001 -10.4488 0.0 0
M  V30 END ATOM
M  V30 BEGIN BOND
M  V30 1 2 1 2
M  V30 2 1 1 3 CFG=1
M  V30 3 1 1 4
M  V30 4 1 1 5
M  V30 5 1 6 3 CFG=1
M  V30 6 1 4 7
M  V30 7 1 5 8
M  V30 8 1 6 9
M  V30 9 1 6 10
M  V30 10 2 7 11
M  V30 11 1 7 12
M  V30 12 1 8 13
M  V30 13 1 9 14
M  V30 14 1 10 15
M  V30 15 1 10 16
M  V30 16 1 12 17
M  V30 17 1 12 18
M  V30 18 1 13 19
M  V30 19 2 14 20
M  V30 20 1 14 21
M  V30 21 1 17 22 CFG=3
M  V30 22 1 17 23
M  V30 23 1 18 24
M  V30 24 1 19 25
M  V30 25 1 21 26
M  V30 26 2 22 27
M  V30 27 1 22 28
M  V30 28 1 24 29 CFG=1
M  V30 29 2 25 30
M  V30 30 1 25 31
M  V30 31 1 29 32
M  V30 32 1 29 33
M  V30 33 1 30 34
M  V30 34 2 31 35
M  V30 35 1 32 36
M  V30 36 1 33 37
M  V30 37 2 34 38
M  V30 38 1 36 39
M  V30 39 1 23 24
M  V30 40 1 35 38
M  V30 41 1 37 39
M  V30 END BOND
M  V30 BEGIN COLLECTION
M  V30 MDLV30/STERAC1 ATOMS=(4 1 6 17 24)
M  V30 END COLLECTION
M  V30 END CTAB
M  END
>  <Drug Name>
Fosinopril

>  <Carbon Count>
30

>  <SMILES String>
O=C([C@H]1N(C[C@@H](C1)C2CCCCC2)C(CP(CCCCC3=CC=CC=C3)(OC(C(C)C)OC(CC)=O)=O)=O)O

$$$$
Doxorubicin
Actelion Java MolfileCreator 2.0

  0  0  0  0  0  0              0 V3000
M  V30 BEGIN CTAB
M  V30 COUNTS 39 43 0 0 0
M  V30 BEGIN ATOM
M  V30 1 O 2.598 -9.75 0.0 0
M  V30 2 C 1.299 -9.0 0.0 0
M  V30 3 C 1.299 -7.5 0.0 0
M  V30 4 C 0.0 -9.75 0.0 0
M  V30 5 C 2.598 -6.75 0.0 0
M  V30 6 C 0.0 -6.75 0.0 0
M  V30 7 C 0.0 -11.25 0.0 0
M  V30 8 C -1.299 -9.0 0.0 0
M  V30 9 O 3.8971 -7.5 0.0 0
M  V30 10 C 2.598 -5.2499 0.0 0
M  V30 11 C -1.299 -7.5 0.0 0
M  V30 12 C 0.0 -5.2499 0.0 0
M  V30 13 O 1.299 -12.0 0.0 0
M  V30 14 C -1.299 -11.9999 0.0 0
M  V30 15 C -2.598 -9.7499 0.0 0
M  V30 16 C 1.299 -4.5 0.0 0
M  V30 17 C 3.8971 -4.5 0.0 0 CFG=1
M  V30 18 O -2.598 -6.75 0.0 0
M  V30 19 O -1.299 -4.4999 0.0 0
M  V30 20 C 2.598 -11.25 0.0 0
M  V30 21 C -2.598 -11.25 0.0 0
M  V30 22 C 1.299 -2.9999 0.0 0
M  V30 23 O 5.1961 -5.25 0.0 0
M  V30 24 C 3.8971 -2.9999 0.0 0
M  V30 25 C 2.598 -2.25 0.0 0 CFG=1
M  V30 26 C 6.4951 -4.4999 0.0 0 CFG=2
M  V30 27 O 3.8971 -1.5 0.0 0
M  V30 28 C 2.598 -0.75 0.0 0
M  V30 29 O 7.7942 -5.2499 0.0 0
M  V30 30 C 6.4951 -2.9999 0.0 0
M  V30 31 O 3.8971 0.0 0.0 0
M  V30 32 C 1.299 0.0 0.0 0
M  V30 33 C 9.0932 -4.5 0.0 0 CFG=2
M  V30 34 C 7.7942 -2.25 0.0 0 CFG=1
M  V30 35 O 0.0 -0.75 0.0 0
M  V30 36 C 9.0932 -2.9999 0.0 0 CFG=2
M  V30 37 C 10.3923 -5.25 0.0 0
M  V30 38 N 7.7942 -0.75 0.0 0
M  V30 39 O 10.3923 -2.2499 0.0 0
M  V30 END ATOM
M  V30 BEGIN BOND
M  V30 1 2 1 2
M  V30 2 1 2 3
M  V30 3 1 2 4
M  V30 4 2 3 5
M  V30 5 1 3 6
M  V30 6 2 4 7
M  V30 7 1 4 8
M  V30 8 1 5 9
M  V30 9 1 5 10
M  V30 10 1 6 11
M  V30 11 2 6 12
M  V30 12 1 7 13
M  V30 13 1 7 14
M  V30 14 2 8 15
M  V30 15 2 10 16
M  V30 16 1 10 17
M  V30 17 2 11 18
M  V30 18 1 12 19
M  V30 19 1 13 20
M  V30 20 2 14 21
M  V30 21 1 16 22
M  V30 22 1 17 23 CFG=3
M  V30 23 1 17 24
M  V30 24 1 22 25
M  V30 25 1 26 23 CFG=1
M  V30 26 1 25 27 CFG=3
M  V30 27 1 25 28
M  V30 28 1 26 29
M  V30 29 1 26 30
M  V30 30 2 28 31
M  V30 31 1 28 32
M  V30 32 1 29 33
M  V30 33 1 30 34
M  V30 34 1 32 35
M  V30 35 1 33 36
M  V30 36 1 33 37 CFG=3
M  V30 37 1 34 38 CFG=3
M  V30 38 1 36 39 CFG=3
M  V30 39 1 8 11
M  V30 40 1 12 16
M  V30 41 1 15 21
M  V30 42 1 24 25
M  V30 43 1 34 36
M  V30 END BOND
M  V30 BEGIN COLLECTION
M  V30 MDLV30/STEABS ATOMS=(6 17 25 26 33 34 36)
M  V30 END COLLECTION
M  V30 END CTAB
M  END
>  <Drug Name>
Doxorubicin

>  <Carbon Count>
27

>  <SMILES String>
COC1=C2C(C(C(C(O)=C(C[C@@](O)(C(CO)=O)C[C@@H]3O[C@@]4([H])C[C@H](N)[C@H](O)[C@H](C)O4)C3=C5O)=C5C2=O)=O)=CC=C1

$$$$
Epirubicin
Actelion Java MolfileCreator 2.0

  0  0  0  0  0  0              0 V3000
M  V30 BEGIN CTAB
M  V30 COUNTS 39 43 0 0 0
M  V30 BEGIN ATOM
M  V30 1 O 2.598 -9.75 0.0 0
M  V30 2 C 1.299 -9.0 0.0 0
M  V30 3 C 1.299 -7.5 0.0 0
M  V30 4 C 0.0 -9.75 0.0 0
M  V30 5 C 2.598 -6.75 0.0 0
M  V30 6 C 0.0 -6.75 0.0 0
M  V30 7 C 0.0 -11.25 0.0 0
M  V30 8 C -1.299 -9.0 0.0 0
M  V30 9 O 3.8971 -7.5 0.0 0
M  V30 10 C 2.598 -5.2499 0.0 0
M  V30 11 C -1.299 -7.5 0.0 0
M  V30 12 C 0.0 -5.2499 0.0 0
M  V30 13 O 1.299 -12.0 0.0 0
M  V30 14 C -1.299 -11.9999 0.0 0
M  V30 15 C -2.598 -9.7499 0.0 0
M  V30 16 C 1.299 -4.5 0.0 0
M  V30 17 C 3.8971 -4.5 0.0 0 CFG=1
M  V30 18 O -2.598 -6.75 0.0 0
M  V30 19 O -1.299 -4.4999 0.0 0
M  V30 20 C 2.598 -11.25 0.0 0
M  V30 21 C -2.598 -11.25 0.0 0
M  V30 22 C 1.299 -2.9999 0.0 0
M  V30 23 O 5.1961 -5.25 0.0 0
M  V30 24 C 3.8971 -2.9999 0.0 0
M  V30 25 C 2.598 -2.25 0.0 0 CFG=1
M  V30 26 C 6.4951 -4.4999 0.0 0 CFG=2
M  V30 27 O 3.8971 -1.5 0.0 0
M  V30 28 C 2.598 -0.75 0.0 0
M  V30 29 O 7.7942 -5.2499 0.0 0
M  V30 30 C 6.4951 -2.9999 0.0 0
M  V30 31 O 3.8971 0.0 0.0 0
M  V30 32 C 1.299 0.0 0.0 0
M  V30 33 C 9.0932 -4.5 0.0 0 CFG=2
M  V30 34 C 7.7942 -2.25 0.0 0 CFG=1
M  V30 35 O 0.0 -0.75 0.0 0
M  V30 36 C 9.0932 -2.9999 0.0 0 CFG=1
M  V30 37 C 10.3923 -5.25 0.0 0
M  V30 38 N 7.7942 -0.75 0.0 0
M  V30 39 O 10.3923 -2.2499 0.0 0
M  V30 END ATOM
M  V30 BEGIN BOND
M  V30 1 2 1 2
M  V30 2 1 2 3
M  V30 3 1 2 4
M  V30 4 2 3 5
M  V30 5 1 3 6
M  V30 6 2 4 7
M  V30 7 1 4 8
M  V30 8 1 5 9
M  V30 9 1 5 10
M  V30 10 1 6 11
M  V30 11 2 6 12
M  V30 12 1 7 13
M  V30 13 1 7 14
M  V30 14 2 8 15
M  V30 15 2 10 16
M  V30 16 1 10 17
M  V30 17 2 11 18
M  V30 18 1 12 19
M  V30 19 1 13 20
M  V30 20 2 14 21
M  V30 21 1 16 22
M  V30 22 1 17 23 CFG=3
M  V30 23 1 17 24
M  V30 24 1 22 25
M  V30 25 1 26 23 CFG=1
M  V30 26 1 25 27 CFG=3
M  V30 27 1 25 28
M  V30 28 1 26 29
M  V30 29 1 26 30
M  V30 30 2 28 31
M  V30 31 1 28 32
M  V30 32 1 29 33
M  V30 33 1 30 34
M  V30 34 1 32 35
M  V30 35 1 33 36
M  V30 36 1 33 37 CFG=3
M  V30 37 1 34 38 CFG=3
M  V30 38 1 36 39 CFG=1
M  V30 39 1 8 11
M  V30 40 1 12 16
M  V30 41 1 15 21
M  V30 42 1 24 25
M  V30 43 1 34 36
M  V30 END BOND
M  V30 BEGIN COLLECTION
M  V30 MDLV30/STEABS ATOMS=(6 17 25 26 33 34 36)
M  V30 END COLLECTION
M  V30 END CTAB
M  END
>  <Drug Name>
Epirubicin

>  <Carbon Count>
27

>  <SMILES String>
OC1=C2C([C@@H](O[C@H]3C[C@H](N)[C@@H](O)[C@H](C)O3)C[C@@](C(CO)=O)(O)C2)=C(O)C4=C1C(C5=C(C4=O)C(OC)=CC=C5)=O

$$$$
Aliskiren
Actelion Java MolfileCreator 2.0

  0  0  0  0  0  0              0 V3000
M  V30 BEGIN CTAB
M  V30 COUNTS 39 39 0 0 0
M  V30 BEGIN ATOM
M  V30 1 O 16.8875 0.0 0.0 0
M  V30 2 C 15.5884 -0.75 0.0 0
M  V30 3 N 15.5884 -2.25 0.0 0
M  V30 4 C 14.2894 0.0 0.0 0
M  V30 5 C 12.9903 -0.75 0.0 0
M  V30 6 C 15.0394 1.299 0.0 0
M  V30 7 C 13.5394 1.299 0.0 0
M  V30 8 N 11.6913 0.0 0.0 0
M  V30 9 C 10.3923 -0.75 0.0 0
M  V30 10 O 10.3923 -2.25 0.0 0
M  V30 11 C 9.0932 0.0 0.0 0 CFG=2
M  V30 12 C 9.0932 1.5 0.0 0
M  V30 13 C 7.7942 -0.75 0.0 0
M  V30 14 C 10.3923 2.25 0.0 0
M  V30 15 C 7.7942 2.25 0.0 0
M  V30 16 C 6.4951 0.0 0.0 0 CFG=2
M  V30 17 O 6.4951 1.5 0.0 0
M  V30 18 C 5.1961 -0.75 0.0 0 CFG=1
M  V30 19 N 5.1961 -2.25 0.0 0
M  V30 20 C 3.8971 0.0 0.0 0
M  V30 21 C 2.598 -0.75 0.0 0 CFG=1
M  V30 22 C 2.598 -2.25 0.0 0
M  V30 23 C 1.299 0.0 0.0 0
M  V30 24 C 1.299 -3.0 0.0 0
M  V30 25 C 3.8971 -3.0 0.0 0
M  V30 26 C 0.0 -0.75 0.0 0
M  V30 27 C -1.299 0.0 0.0 0
M  V30 28 C 0.0 -2.25 0.0 0
M  V30 29 C -2.598 -0.75 0.0 0
M  V30 30 C -1.299 -3.0 0.0 0
M  V30 31 O -3.8971 0.0 0.0 0
M  V30 32 C -2.598 -2.25 0.0 0
M  V30 33 C -5.1961 -0.75 0.0 0
M  V30 34 O -3.8971 -3.0 0.0 0
M  V30 35 C -6.4951 0.0 0.0 0
M  V30 36 C -3.8971 -4.5 0.0 0
M  V30 37 C -7.7942 -0.75 0.0 0
M  V30 38 O -9.0932 0.0 0.0 0
M  V30 39 C -10.3923 -0.75 0.0 0
M  V30 END ATOM
M  V30 BEGIN BOND
M  V30 1 2 1 2
M  V30 2 1 2 3
M  V30 3 1 2 4
M  V30 4 1 4 5
M  V30 5 1 4 6
M  V30 6 1 4 7
M  V30 7 1 5 8
M  V30 8 1 8 9
M  V30 9 2 9 10
M  V30 10 1 9 11
M  V30 11 1 11 12
M  V30 12 1 11 13 CFG=1
M  V30 13 1 12 14
M  V30 14 1 12 15
M  V30 15 1 13 16
M  V30 16 1 16 17 CFG=1
M  V30 17 1 16 18
M  V30 18 1 18 19 CFG=1
M  V30 19 1 18 20
M  V30 20 1 21 20 CFG=1
M  V30 21 1 21 22
M  V30 22 1 21 23
M  V30 23 1 22 24
M  V30 24 1 22 25
M  V30 25 1 23 26
M  V30 26 2 26 27
M  V30 27 1 26 28
M  V30 28 1 27 29
M  V30 29 2 28 30
M  V30 30 1 29 31
M  V30 31 2 29 32
M  V30 32 1 31 33
M  V30 33 1 32 34
M  V30 34 1 33 35
M  V30 35 1 34 36
M  V30 36 1 35 37
M  V30 37 1 37 38
M  V30 38 1 38 39
M  V30 39 1 30 32
M  V30 END BOND
M  V30 BEGIN COLLECTION
M  V30 MDLV30/STEABS ATOMS=(4 11 16 18 21)
M  V30 END COLLECTION
M  V30 END CTAB
M  END
>  <Drug Name>
Aliskiren

>  <Carbon Count>
30

>  <SMILES String>
O=C(N)C(C)(C)CNC([C@@H](C(C)C)C[C@H](O)[C@@H](N)C[C@@H](C(C)C)CC1=CC=C(C(OCCCOC)=C1)OC)=O

$$$$
Netupitant
Actelion Java MolfileCreator 2.0

  0  0  0  0  0  0              0 V3000
M  V30 BEGIN CTAB
M  V30 COUNTS 41 44 0 0 0
M  V30 BEGIN ATOM
M  V30 1 F 8.5442 -3.549 0.0 0
M  V30 2 C 7.7942 -2.25 0.0 0
M  V30 3 F 9.0932 -1.5 0.0 0
M  V30 4 F 7.0442 -0.9509 0.0 0
M  V30 5 C 6.4951 -3.0 0.0 0
M  V30 6 C 6.4951 -4.5 0.0 0
M  V30 7 C 5.1961 -2.25 0.0 0
M  V30 8 C 5.1961 -5.25 0.0 0
M  V30 9 C 3.8971 -3.0 0.0 0
M  V30 10 C 3.8971 -4.5 0.0 0
M  V30 11 C 5.1961 -6.75 0.0 0
M  V30 12 C 2.598 -2.25 0.0 0
M  V30 13 F 3.6961 -6.75 0.0 0
M  V30 14 F 5.1961 -8.25 0.0 0
M  V30 15 F 6.6961 -6.75 0.0 0
M  V30 16 C 2.598 -0.75 0.0 0
M  V30 17 C 1.8481 -3.549 0.0 0
M  V30 18 C 1.0981 -2.2499 0.0 0
M  V30 19 O 3.8971 0.0 0.0 0
M  V30 20 N 1.299 0.0 0.0 0
M  V30 21 C 1.299 1.5 0.0 0
M  V30 22 C 0.0 -0.75 0.0 0
M  V30 23 C 0.0 2.25 0.0 0
M  V30 24 C 2.598 2.25 0.0 0
M  V30 25 C -1.299 1.5 0.0 0
M  V30 26 C 0.0 3.75 0.0 0
M  V30 27 N 2.598 3.75 0.0 0
M  V30 28 C -2.598 2.25 0.0 0
M  V30 29 C -1.299 0.0 0.0 0
M  V30 30 C 1.299 4.5 0.0 0
M  V30 31 C -3.8971 1.5 0.0 0
M  V30 32 C -2.598 3.75 0.0 0
M  V30 33 C -2.598 -0.75 0.0 0
M  V30 34 N 1.299 6.0 0.0 0
M  V30 35 C -3.8971 0.0 0.0 0
M  V30 36 C 0.0 6.75 0.0 0
M  V30 37 C 2.598 6.75 0.0 0
M  V30 38 C 0.0 8.25 0.0 0
M  V30 39 C 2.598 8.25 0.0 0
M  V30 40 N 1.299 9.0 0.0 0
M  V30 41 C 1.299 10.5 0.0 0
M  V30 END ATOM
M  V30 BEGIN BOND
M  V30 1 1 1 2
M  V30 2 1 2 3
M  V30 3 1 2 4
M  V30 4 1 2 5
M  V30 5 2 5 6
M  V30 6 1 5 7
M  V30 7 1 6 8
M  V30 8 2 7 9
M  V30 9 2 8 10
M  V30 10 1 8 11
M  V30 11 1 9 12
M  V30 12 1 11 13
M  V30 13 1 11 14
M  V30 14 1 11 15
M  V30 15 1 12 16
M  V30 16 1 12 17
M  V30 17 1 12 18
M  V30 18 2 16 19
M  V30 19 1 16 20
M  V30 20 1 20 21
M  V30 21 1 20 22
M  V30 22 2 21 23
M  V30 23 1 21 24
M  V30 24 1 23 25
M  V30 25 1 23 26
M  V30 26 2 24 27
M  V30 27 2 25 28
M  V30 28 1 25 29
M  V30 29 2 26 30
M  V30 30 1 28 31
M  V30 31 1 28 32
M  V30 32 2 29 33
M  V30 33 1 30 34
M  V30 34 2 31 35
M  V30 35 1 34 36
M  V30 36 1 34 37
M  V30 37 1 36 38
M  V30 38 1 37 39
M  V30 39 1 38 40
M  V30 40 1 40 41
M  V30 41 1 9 10
M  V30 42 1 27 30
M  V30 43 1 33 35
M  V30 44 1 39 40
M  V30 END BOND
M  V30 END CTAB
M  END
>  <Drug Name>
Netupitant

>  <Carbon Count>
30

>  <SMILES String>
CN1CCN(CC1)C2=NC=C(C(C3=C(C=CC=C3)C)=C2)N(C)C(C(C4=CC(C(F)(F)F)=CC(C(F)(F)F)=C4)(C)C)=O

$$$$
Olmesartan Medoxomil
Actelion Java MolfileCreator 2.0

  0  0  0  0  0  0              0 V3000
M  V30 BEGIN CTAB
M  V30 COUNTS 41 45 0 0 0
M  V30 BEGIN ATOM
M  V30 1 O 6.0412 -0.7318 0.0 0
M  V30 2 C 5.0467 -0.8364 0.0 0
M  V30 3 O 4.3776 -0.0932 0.0 0
M  V30 4 O 4.5467 -1.7024 0.0 0
M  V30 5 C 3.4641 -0.5 0.0 0
M  V30 6 C 3.5686 -1.4945 0.0 0
M  V30 7 C 2.598 0.0 0.0 0
M  V30 8 C 2.8254 -2.1636 0.0 0
M  V30 9 O 1.732 -0.5 0.0 0
M  V30 10 C 0.866 0.0 0.0 0
M  V30 11 O 0.866 1.0 0.0 0
M  V30 12 C 0.0 -0.5 0.0 0
M  V30 13 N -0.9135 -0.0932 0.0 0
M  V30 14 C -0.1045 -1.4945 0.0 0
M  V30 15 C -1.5826 -0.8364 0.0 0
M  V30 16 C -1.1214 0.8848 0.0 0
M  V30 17 N -1.0826 -1.7024 0.0 0
M  V30 18 C 0.6386 -2.1636 0.0 0
M  V30 19 C -2.5771 -0.7318 0.0 0
M  V30 20 C -2.0725 1.1939 0.0 0
M  V30 21 O 1.3077 -1.4205 0.0 0
M  V30 22 C 1.3817 -2.8327 0.0 0
M  V30 23 C -0.0305 -2.9067 0.0 0
M  V30 24 C -3.1649 -1.5408 0.0 0
M  V30 25 C -2.2804 2.172 0.0 0
M  V30 26 C -2.8156 0.5247 0.0 0
M  V30 27 C -4.1595 -1.4363 0.0 0
M  V30 28 C -3.2314 2.481 0.0 0
M  V30 29 C -3.7667 0.8337 0.0 0
M  V30 30 C -3.9746 1.8119 0.0 0
M  V30 31 C -4.9256 2.1209 0.0 0
M  V30 32 C -5.1335 3.099 0.0 0
M  V30 33 C -5.6688 1.4518 0.0 0
M  V30 34 C -4.3904 3.7682 0.0 0
M  V30 35 C -6.0846 3.4081 0.0 0
M  V30 36 C -6.6198 1.7608 0.0 0
M  V30 37 N -3.4123 3.5603 0.0 0
M  V30 38 N -4.4949 4.7627 0.0 0
M  V30 39 C -6.8277 2.7389 0.0 0
M  V30 40 N -2.9123 4.4263 0.0 0
M  V30 41 N -3.5814 5.1694 0.0 0
M  V30 END ATOM
M  V30 BEGIN BOND
M  V30 1 2 1 2
M  V30 2 1 2 3
M  V30 3 1 2 4
M  V30 4 1 3 5
M  V30 5 1 4 6
M  V30 6 1 5 7
M  V30 7 1 6 8
M  V30 8 1 7 9
M  V30 9 1 9 10
M  V30 10 2 10 11
M  V30 11 1 10 12
M  V30 12 1 12 13
M  V30 13 2 12 14
M  V30 14 1 13 15
M  V30 15 1 13 16
M  V30 16 1 14 17
M  V30 17 1 14 18
M  V30 18 1 15 19
M  V30 19 1 16 20
M  V30 20 1 18 21
M  V30 21 1 18 22
M  V30 22 1 18 23
M  V30 23 1 19 24
M  V30 24 2 20 25
M  V30 25 1 20 26
M  V30 26 1 24 27
M  V30 27 1 25 28
M  V30 28 2 26 29
M  V30 29 2 28 30
M  V30 30 1 30 31
M  V30 31 2 31 32
M  V30 32 1 31 33
M  V30 33 1 32 34
M  V30 34 1 32 35
M  V30 35 2 33 36
M  V30 36 2 34 37
M  V30 37 1 34 38
M  V30 38 2 35 39
M  V30 39 1 37 40
M  V30 40 1 38 41
M  V30 41 2 5 6
M  V30 42 2 15 17
M  V30 43 1 29 30
M  V30 44 1 36 39
M  V30 45 2 40 41
M  V30 END BOND
M  V30 END CTAB
M  END
>  <Drug Name>
Olmesartan Medoxomil

>  <Carbon Count>
29

>  <SMILES String>
CCCC1=NC(C(C)(O)C)=C(C(OCC(O2)=C(C)OC2=O)=O)N1CC3=CC=C(C4=CC=CC=C4C5=NN=NN5)C=C3

$$$$
Etoposide
Actelion Java MolfileCreator 2.0

  0  0  0  0  0  0              0 V3000
M  V30 BEGIN CTAB
M  V30 COUNTS 42 48 0 0 0
M  V30 BEGIN ATOM
M  V30 1 O 5.1853 -0.0387 0.0 0
M  V30 2 C 4.2072 0.1691 0.0 0
M  V30 3 O 3.8005 1.0826 0.0 0
M  V30 4 C 3.4641 -0.4999 0.0 0 CFG=2
M  V30 5 C 2.8059 0.9781 0.0 0
M  V30 6 C 3.4641 -1.4999 0.0 0 CFG=1
M  V30 7 C 2.598 0.0 0.0 0 CFG=2
M  V30 8 C 2.598 -2.0 0.0 0
M  V30 9 C 4.3301 -1.9999 0.0 0
M  V30 10 C 1.732 -0.5 0.0 0 CFG=1
M  V30 11 C 1.732 -1.5 0.0 0
M  V30 12 C 2.598 -2.9999 0.0 0
M  V30 13 C 4.3301 -2.9999 0.0 0
M  V30 14 C 5.1961 -1.4999 0.0 0
M  V30 15 O 0.866 0.0 0.0 0
M  V30 16 C 0.866 -2.0 0.0 0
M  V30 17 C 1.732 -3.5 0.0 0
M  V30 18 C 5.1961 -3.4999 0.0 0
M  V30 19 C 6.0621 -1.9999 0.0 0
M  V30 20 C 0.866 0.9999 0.0 0 CFG=2
M  V30 21 C 0.866 -3.0 0.0 0
M  V30 22 O 1.5241 -4.4781 0.0 0
M  V30 23 O 5.1961 -4.4999 0.0 0
M  V30 24 C 6.0621 -2.9999 0.0 0
M  V30 25 O 6.9282 -1.4999 0.0 0
M  V30 26 O 1.732 1.4999 0.0 0
M  V30 27 C 0.0 1.5 0.0 0 CFG=2
M  V30 28 O 0.1228 -3.6691 0.0 0
M  V30 29 C 0.5296 -4.5826 0.0 0
M  V30 30 C 6.0621 -4.9999 0.0 0
M  V30 31 O 6.9282 -3.4999 0.0 0
M  V30 32 C 6.9282 -0.4999 0.0 0
M  V30 33 C 1.732 2.5 0.0 0 CFG=1
M  V30 34 O -0.866 1.0 0.0 0
M  V30 35 C 0.0 2.4999 0.0 0 CFG=2
M  V30 36 C 0.866 3.0 0.0 0 CFG=2
M  V30 37 C 2.598 2.9999 0.0 0
M  V30 38 O -0.866 3.0 0.0 0
M  V30 39 O 0.866 4.0 0.0 0
M  V30 40 O 2.598 4.0 0.0 0
M  V30 41 C 1.732 4.4999 0.0 0 CFG=1
M  V30 42 C 1.732 5.4999 0.0 0
M  V30 END ATOM
M  V30 BEGIN BOND
M  V30 1 2 1 2
M  V30 2 1 2 3
M  V30 3 1 4 2 CFG=3
M  V30 4 1 3 5
M  V30 5 1 4 6
M  V30 6 1 4 7
M  V30 7 1 6 8
M  V30 8 1 6 9 CFG=3
M  V30 9 1 7 10
M  V30 10 2 8 11
M  V30 11 1 8 12
M  V30 12 2 9 13
M  V30 13 1 9 14
M  V30 14 1 10 15 CFG=1
M  V30 15 1 11 16
M  V30 16 2 12 17
M  V30 17 1 13 18
M  V30 18 2 14 19
M  V30 19 1 20 15 CFG=1
M  V30 20 2 16 21
M  V30 21 1 17 22
M  V30 22 1 18 23
M  V30 23 2 18 24
M  V30 24 1 19 25
M  V30 25 1 20 26
M  V30 26 1 20 27
M  V30 27 1 21 28
M  V30 28 1 22 29
M  V30 29 1 23 30
M  V30 30 1 24 31
M  V30 31 1 25 32
M  V30 32 1 33 26 CFG=1
M  V30 33 1 27 34 CFG=3
M  V30 34 1 27 35
M  V30 35 1 33 36
M  V30 36 1 33 37
M  V30 37 1 35 38 CFG=1
M  V30 38 1 36 39 CFG=3
M  V30 39 1 37 40
M  V30 40 1 39 41
M  V30 41 1 41 42 CFG=3
M  V30 42 1 7 5 CFG=1
M  V30 43 1 10 11
M  V30 44 1 17 21
M  V30 45 1 19 24
M  V30 46 1 28 29
M  V30 47 1 35 36
M  V30 48 1 40 41
M  V30 END BOND
M  V30 BEGIN COLLECTION
M  V30 MDLV30/STEABS ATOMS=(10 4 6 7 10 20 27 33 35 36 41)
M  V30 END COLLECTION
M  V30 END CTAB
M  END
>  <Drug Name>
Etoposide

>  <Carbon Count>
29

>  <SMILES String>
[H][C@]12[C@@]([C@H](O)[C@@H](O)[C@H](O[C@@H]3C(C=C(OCO4)C4=C5)=C5[C@@H](C6=CC(OC)=C(O)C(OC)=C6)[C@]7([H])[C@]3([H])COC7=O)O2)([H])O[C@H](C)OC1

$$$$
Neomycin
Actelion Java MolfileCreator 2.0

  0  0  0  0  0  0              0 V3000
M  V30 BEGIN CTAB
M  V30 COUNTS 42 45 0 0 0
M  V30 BEGIN ATOM
M  V30 1 O 2.598 -2.25 0.0 0
M  V30 2 C 2.598 -0.75 0.0 0 CFG=2
M  V30 3 C 3.8971 -3.0 0.0 0 CFG=1
M  V30 4 O 1.299 0.0 0.0 0
M  V30 5 C 3.8971 0.0 0.0 0 CFG=2
M  V30 6 C 5.1961 -2.25 0.0 0 CFG=2
M  V30 7 C 3.8971 -4.5 0.0 0
M  V30 8 C 0.0 -0.75 0.0 0 CFG=1
M  V30 9 N 3.8971 1.4999 0.0 0
M  V30 10 C 5.1961 -0.75 0.0 0 CFG=2
M  V30 11 O 6.4951 -3.0 0.0 0
M  V30 12 N 2.598 -5.25 0.0 0
M  V30 13 C -1.299 0.0 0.0 0 CFG=2
M  V30 14 C 0.0 -2.25 0.0 0 CFG=1
M  V30 15 O 6.4951 0.0 0.0 0
M  V30 16 O -1.299 1.5 0.0 0
M  V30 17 C -2.598 -0.7499 0.0 0 CFG=1
M  V30 18 N 1.299 -3.0 0.0 0
M  V30 19 C -1.299 -2.9999 0.0 0
M  V30 20 C -2.598 2.25 0.0 0 CFG=2
M  V30 21 O -3.8971 0.0 0.0 0
M  V30 22 C -2.598 -2.2499 0.0 0 CFG=1
M  V30 23 O -3.9683 1.6398 0.0 0
M  V30 24 C -2.7548 3.7417 0.0 0 CFG=2
M  V30 25 N -3.8971 -2.9999 0.0 0
M  V30 26 C -4.972 2.7546 0.0 0 CFG=1
M  V30 27 O -1.6401 4.7454 0.0 0
M  V30 28 C -4.222 4.0536 0.0 0 CFG=1
M  V30 29 C -6.4638 2.5978 0.0 0
M  V30 30 O -4.8321 5.4239 0.0 0
M  V30 31 O -7.3455 3.8113 0.0 0
M  V30 32 C -3.9505 6.6374 0.0 0 CFG=1
M  V30 33 O -2.4587 6.4807 0.0 0
M  V30 34 C -4.5606 8.0078 0.0 0 CFG=2
M  V30 35 C -1.577 7.6942 0.0 0 CFG=2
M  V30 36 N -6.0524 8.1646 0.0 0
M  V30 37 C -3.6789 9.2213 0.0 0 CFG=2
M  V30 38 C -2.1871 9.0645 0.0 0 CFG=2
M  V30 39 C -0.0852 7.5374 0.0 0
M  V30 40 O -4.289 10.5916 0.0 0
M  V30 41 O -1.3054 10.278 0.0 0
M  V30 42 N 0.7964 8.7509 0.0 0
M  V30 END ATOM
M  V30 BEGIN BOND
M  V30 1 1 1 2
M  V30 2 1 1 3
M  V30 3 1 2 4 CFG=3
M  V30 4 1 2 5
M  V30 5 1 3 6
M  V30 6 1 3 7 CFG=1
M  V30 7 1 8 4 CFG=3
M  V30 8 1 5 9 CFG=3
M  V30 9 1 5 10
M  V30 10 1 6 11 CFG=3
M  V30 11 1 7 12
M  V30 12 1 8 13
M  V30 13 1 8 14
M  V30 14 1 10 15 CFG=1
M  V30 15 1 13 16 CFG=1
M  V30 16 1 13 17
M  V30 17 1 14 18 CFG=1
M  V30 18 1 14 19
M  V30 19 1 20 16 CFG=3
M  V30 20 1 17 21 CFG=3
M  V30 21 1 17 22
M  V30 22 1 20 23
M  V30 23 1 20 24
M  V30 24 1 22 25 CFG=1
M  V30 25 1 23 26
M  V30 26 1 24 27 CFG=1
M  V30 27 1 24 28
M  V30 28 1 26 29 CFG=3
M  V30 29 1 28 30 CFG=1
M  V30 30 1 29 31
M  V30 31 1 32 30 CFG=3
M  V30 32 1 32 33
M  V30 33 1 32 34
M  V30 34 1 33 35
M  V30 35 1 34 36 CFG=3
M  V30 36 1 34 37
M  V30 37 1 35 38
M  V30 38 1 35 39 CFG=3
M  V30 39 1 37 40 CFG=1
M  V30 40 1 38 41 CFG=3
M  V30 41 1 39 42
M  V30 42 1 6 10
M  V30 43 1 19 22
M  V30 44 1 26 28
M  V30 45 1 37 38
M  V30 END BOND
M  V30 BEGIN COLLECTION
M  V30 MDLV30/STEABS ATOMS=(19 2 3 5 6 8 10 13 14 17 20 22 24 26 28 32 34 35 37 38)
M  V30 END COLLECTION
M  V30 END CTAB
M  END
>  <Drug Name>
Neomycin

>  <Carbon Count>
23

>  <SMILES String>
O([C@H]3[C@H](O[C@@H]2O[C@H](CO)[C@@H](O[C@H]1O[C@@H](CN)[C@@H](O)[C@H](O)[C@H]1N)[C@H]2O)[C@@H](O)[C@H](N)C[C@@H]3N)[C@H]4O[C@@H]([C@@H](O)[C@H](O)[C@H]4N)CN

$$$$
Azilsartan Kamedoxomil
Actelion Java MolfileCreator 2.0

  0  0  0  0  0  0              0 V3000
M  V30 BEGIN CTAB
M  V30 COUNTS 42 47 0 0 0
M  V30 BEGIN ATOM
M  V30 1 O 6.0412 -0.7318 0.0 0
M  V30 2 C 5.0467 -0.8364 0.0 0
M  V30 3 O 4.3776 -0.0932 0.0 0
M  V30 4 O 4.5467 -1.7024 0.0 0
M  V30 5 C 3.4641 -0.5 0.0 0
M  V30 6 C 3.5686 -1.4945 0.0 0
M  V30 7 C 2.598 0.0 0.0 0
M  V30 8 C 2.8254 -2.1636 0.0 0
M  V30 9 O 1.732 -0.5 0.0 0
M  V30 10 C 0.866 0.0 0.0 0
M  V30 11 O 0.866 1.0 0.0 0
M  V30 12 C 0.0 -0.5 0.0 0
M  V30 13 C -0.866 0.0 0.0 0
M  V30 14 C 0.0 -1.4999 0.0 0
M  V30 15 N -1.0739 0.9781 0.0 0
M  V30 16 C -1.732 -0.4999 0.0 0
M  V30 17 C -0.866 -1.9999 0.0 0
M  V30 18 C -2.0684 1.0826 0.0 0
M  V30 19 C -0.4048 1.7212 0.0 0
M  V30 20 N -2.4751 0.1691 0.0 0
M  V30 21 C -1.732 -1.4999 0.0 0
M  V30 22 O -2.5684 1.9487 0.0 0
M  V30 23 C -0.7138 2.6723 0.0 0
M  V30 24 C -3.5684 1.9487 0.0 0
M  V30 25 C -0.0446 3.4154 0.0 0
M  V30 26 C -1.6919 2.8802 0.0 0
M  V30 27 C -4.0684 2.8147 0.0 0
M  V30 28 C -0.3537 4.3665 0.0 0
M  V30 29 C -2.0009 3.8313 0.0 0
M  V30 30 C -1.3318 4.5744 0.0 0
M  V30 31 C -1.6408 5.5255 0.0 0
M  V30 32 C -0.9717 6.2686 0.0 0
M  V30 33 C -2.619 5.7334 0.0 0
M  V30 34 C 0.0064 6.0607 0.0 0
M  V30 35 C -1.2807 7.2197 0.0 0
M  V30 36 C -2.928 6.6844 0.0 0
M  V30 37 N 0.4131 5.1472 0.0 0
M  V30 38 N 0.7495 6.7298 0.0 0
M  V30 39 C -2.2589 7.4276 0.0 0
M  V30 40 O 1.4076 5.2517 0.0 0
M  V30 41 C 1.6155 6.2298 0.0 0
M  V30 42 O 2.5291 6.6366 0.0 0
M  V30 END ATOM
M  V30 BEGIN BOND
M  V30 1 2 1 2
M  V30 2 1 2 3
M  V30 3 1 2 4
M  V30 4 1 3 5
M  V30 5 1 4 6
M  V30 6 1 5 7
M  V30 7 1 6 8
M  V30 8 1 7 9
M  V30 9 1 9 10
M  V30 10 2 10 11
M  V30 11 1 10 12
M  V30 12 2 12 13
M  V30 13 1 12 14
M  V30 14 1 13 15
M  V30 15 1 13 16
M  V30 16 2 14 17
M  V30 17 1 15 18
M  V30 18 1 15 19
M  V30 19 1 16 20
M  V30 20 2 16 21
M  V30 21 1 18 22
M  V30 22 1 19 23
M  V30 23 1 22 24
M  V30 24 2 23 25
M  V30 25 1 23 26
M  V30 26 1 24 27
M  V30 27 1 25 28
M  V30 28 2 26 29
M  V30 29 2 28 30
M  V30 30 1 30 31
M  V30 31 2 31 32
M  V30 32 1 31 33
M  V30 33 1 32 34
M  V30 34 1 32 35
M  V30 35 2 33 36
M  V30 36 2 34 37
M  V30 37 1 34 38
M  V30 38 2 35 39
M  V30 39 1 37 40
M  V30 40 1 38 41
M  V30 41 2 41 42
M  V30 42 2 5 6
M  V30 43 1 17 21
M  V30 44 2 18 20
M  V30 45 1 29 30
M  V30 46 1 36 39
M  V30 47 1 40 41
M  V30 END BOND
M  V30 END CTAB
M  END
>  <Drug Name>
Azilsartan Kamedoxomil

>  <Carbon Count>
30

>  <SMILES String>
CCOC1=NC2=C(C(C(OCC3=C(OC(O3)=O)C)=O)=CC=C2)N1CC4=CC=C(C5=CC=CC=C5C6=NOC(N6)=O)C=C4

$$$$
Deserpidine
Actelion Java MolfileCreator 2.0

  0  0  0  0  0  0              0 V3000
M  V30 BEGIN CTAB
M  V30 COUNTS 42 47 0 0 0
M  V30 BEGIN ATOM
M  V30 1 O 2.598 0.0 0.0 0
M  V30 2 C 1.732 -0.5 0.0 0
M  V30 3 O 0.866 0.0 0.0 0
M  V30 4 C 1.732 -1.5 0.0 0
M  V30 5 C 0.0 -0.5 0.0 0 CFG=1
M  V30 6 C 0.866 -2.0 0.0 0
M  V30 7 C 2.598 -1.9999 0.0 0
M  V30 8 C -0.866 0.0 0.0 0 CFG=2
M  V30 9 C 0.0 -1.4999 0.0 0
M  V30 10 C 0.866 -3.0 0.0 0
M  V30 11 C 2.598 -3.0 0.0 0
M  V30 12 O -0.866 1.0 0.0 0
M  V30 13 C -1.732 -0.4999 0.0 0 CFG=1
M  V30 14 C -0.866 -2.0 0.0 0 CFG=1
M  V30 15 O 0.0 -3.5 0.0 0
M  V30 16 C 1.732 -3.5 0.0 0
M  V30 17 O 3.4641 -3.5 0.0 0
M  V30 18 C -1.732 1.5 0.0 0
M  V30 19 C -2.598 0.0 0.0 0
M  V30 20 C -1.732 -1.5 0.0 0 CFG=2
M  V30 21 C -0.866 -2.9999 0.0 0
M  V30 22 C 0.0 -4.5 0.0 0
M  V30 23 O 1.732 -4.5 0.0 0
M  V30 24 C 4.3301 -3.0 0.0 0
M  V30 25 O -3.4641 -0.4999 0.0 0
M  V30 26 O -2.598 1.0 0.0 0
M  V30 27 C -2.598 -2.0 0.0 0
M  V30 28 N -1.732 -3.4999 0.0 0
M  V30 29 C 2.598 -5.0 0.0 0
M  V30 30 C -3.4641 1.5 0.0 0
M  V30 31 C -2.598 -3.0 0.0 0 CFG=1
M  V30 32 C -1.732 -4.5 0.0 0
M  V30 33 C -3.4641 -3.4999 0.0 0
M  V30 34 C -2.598 -5.0 0.0 0
M  V30 35 N -4.4151 -3.1909 0.0 0
M  V30 36 C -3.4641 -4.5 0.0 0
M  V30 37 C -5.0029 -3.9999 0.0 0
M  V30 38 C -4.4151 -4.809 0.0 0
M  V30 39 C -5.9974 -4.1045 0.0 0
M  V30 40 C -4.8218 -5.7225 0.0 0
M  V30 41 C -6.4042 -5.018 0.0 0
M  V30 42 C -5.8164 -5.827 0.0 0
M  V30 END ATOM
M  V30 BEGIN BOND
M  V30 1 2 1 2
M  V30 2 1 2 3
M  V30 3 1 2 4
M  V30 4 1 5 3 CFG=3
M  V30 5 2 4 6
M  V30 6 1 4 7
M  V30 7 1 5 8
M  V30 8 1 5 9
M  V30 9 1 6 10
M  V30 10 2 7 11
M  V30 11 1 8 12 CFG=1
M  V30 12 1 8 13
M  V30 13 1 14 9 CFG=3
M  V30 14 1 10 15
M  V30 15 2 10 16
M  V30 16 1 11 17
M  V30 17 1 12 18
M  V30 18 1 13 19 CFG=3
M  V30 19 1 13 20
M  V30 20 1 14 21
M  V30 21 1 15 22
M  V30 22 1 16 23
M  V30 23 1 17 24
M  V30 24 2 19 25
M  V30 25 1 19 26
M  V30 26 1 20 27 CFG=3
M  V30 27 1 21 28
M  V30 28 1 23 29
M  V30 29 1 26 30
M  V30 30 1 27 31
M  V30 31 1 28 32
M  V30 32 1 31 33
M  V30 33 1 32 34
M  V30 34 1 33 35
M  V30 35 2 33 36
M  V30 36 1 35 37
M  V30 37 1 36 38
M  V30 38 1 37 39
M  V30 39 1 38 40
M  V30 40 2 39 41
M  V30 41 2 40 42
M  V30 42 1 11 16
M  V30 43 1 14 20
M  V30 44 1 31 28 CFG=1
M  V30 45 1 34 36
M  V30 46 2 37 38
M  V30 47 1 41 42
M  V30 END BOND
M  V30 BEGIN COLLECTION
M  V30 MDLV30/STEABS ATOMS=(6 5 8 13 14 20 31)
M  V30 END COLLECTION
M  V30 END CTAB
M  END
>  <Drug Name>
Deserpidine

>  <Carbon Count>
32

>  <SMILES String>
[H][C@@]1(C2)C3=C(C4=C(N3)C=CC=C4)CCN1C[C@]5([H])[C@]2([C@H](C(OC)=O)[C@@H](OC)[C@H](OC(C6=CC(OC)=C(OC)C(OC)=C6)=O)C5)[H]

$$$$
Ergotamine
Actelion Java MolfileCreator 2.0

  0  0  0  0  0  0              0 V3000
M  V30 BEGIN CTAB
M  V30 COUNTS 43 50 0 0 0
M  V30 BEGIN ATOM
M  V30 1 O -4.0826 -1.7024 0.0 0
M  V30 2 C -3.0826 -1.7024 0.0 0
M  V30 3 N -2.5826 -2.5684 0.0 0
M  V30 4 C -2.5826 -0.8364 0.0 0 CFG=1
M  V30 5 C -1.5826 -2.5684 0.0 0 CFG=2
M  V30 6 C -2.8916 -3.5195 0.0 0
M  V30 7 N -1.5826 -0.8364 0.0 0
M  V30 8 C -3.0826 0.0296 0.0 0
M  V30 9 C -1.0826 -1.7024 0.0 0 CFG=1
M  V30 10 C -1.2736 -3.5195 0.0 0
M  V30 11 C -2.0826 -4.1073 0.0 0
M  V30 12 C -0.9135 -0.0932 0.0 0
M  V30 13 C -4.0826 0.0296 0.0 0
M  V30 14 O -0.1045 -1.4945 0.0 0
M  V30 15 O -0.4948 -2.5114 0.0 0
M  V30 16 O -1.1214 0.8848 0.0 0
M  V30 17 C 0.0 -0.5 0.0 0 CFG=1
M  V30 18 C -4.5826 0.8956 0.0 0
M  V30 19 C -4.5826 -0.8364 0.0 0
M  V30 20 N 0.866 0.0 0.0 0
M  V30 21 C 0.8386 -1.0446 0.0 0
M  V30 22 C -5.5826 0.8956 0.0 0
M  V30 23 C -5.5826 -0.8364 0.0 0
M  V30 24 C 1.732 -0.5 0.0 0
M  V30 25 C -6.0826 0.0296 0.0 0
M  V30 26 O 2.598 0.0 0.0 0
M  V30 27 C 1.732 -1.5 0.0 0 CFG=2
M  V30 28 C 2.598 -2.0 0.0 0
M  V30 29 C 0.866 -2.0 0.0 0
M  V30 30 C 2.598 -2.9999 0.0 0
M  V30 31 N 0.866 -3.0 0.0 0
M  V30 32 C 3.4641 -3.4999 0.0 0
M  V30 33 C 1.732 -3.5 0.0 0 CFG=2
M  V30 34 C 0.0 -3.5 0.0 0
M  V30 35 C 3.4641 -4.4999 0.0 0
M  V30 36 C 4.4253 -3.124 0.0 0
M  V30 37 C 1.732 -4.5 0.0 0
M  V30 38 C 4.2072 -5.1691 0.0 0
M  V30 39 C 2.598 -4.9999 0.0 0
M  V30 40 C 5.2343 -3.7118 0.0 0
M  V30 41 N 3.8005 -6.0826 0.0 0
M  V30 42 C 5.1298 -4.7063 0.0 0
M  V30 43 C 2.8059 -5.9781 0.0 0
M  V30 END ATOM
M  V30 BEGIN BOND
M  V30 1 2 1 2
M  V30 2 1 2 3
M  V30 3 1 2 4
M  V30 4 1 5 3 CFG=3
M  V30 5 1 3 6
M  V30 6 1 4 7
M  V30 7 1 4 8 CFG=3
M  V30 8 1 5 9
M  V30 9 1 5 10
M  V30 10 1 6 11
M  V30 11 1 7 12
M  V30 12 1 8 13
M  V30 13 1 9 14
M  V30 14 1 9 15 CFG=3
M  V30 15 2 12 16
M  V30 16 1 12 17
M  V30 17 2 13 18
M  V30 18 1 13 19
M  V30 19 1 17 20
M  V30 20 1 17 21 CFG=1
M  V30 21 1 18 22
M  V30 22 2 19 23
M  V30 23 1 20 24
M  V30 24 2 22 25
M  V30 25 2 24 26
M  V30 26 1 27 24 CFG=3
M  V30 27 1 27 28
M  V30 28 1 27 29
M  V30 29 2 28 30
M  V30 30 1 29 31
M  V30 31 1 30 32
M  V30 32 1 30 33
M  V30 33 1 31 34
M  V30 34 2 32 35
M  V30 35 1 32 36
M  V30 36 1 33 37
M  V30 37 1 35 38
M  V30 38 1 35 39
M  V30 39 2 36 40
M  V30 40 1 38 41
M  V30 41 2 38 42
M  V30 42 2 39 43
M  V30 43 1 7 9
M  V30 44 1 10 11
M  V30 45 1 14 17
M  V30 46 1 23 25
M  V30 47 1 33 31 CFG=1
M  V30 48 1 37 39
M  V30 49 1 40 42
M  V30 50 1 41 43
M  V30 END BOND
M  V30 BEGIN COLLECTION
M  V30 MDLV30/STEABS ATOMS=(6 4 5 9 17 27 33)
M  V30 END COLLECTION
M  V30 END CTAB
M  END
>  <Drug Name>
Ergotamine

>  <Carbon Count>
33

>  <SMILES String>
[H][C@@]12CC3=CNC4=C3C(C1=C[C@@H](C(N[C@]5(C(N6[C@H](C(N7CCC[C@]7([C@@]6(O5)O)[H])=O)CC8=CC=CC=C8)=O)C)=O)CN2C)=CC=C4

$$$$
Irinotecan
Actelion Java MolfileCreator 2.0

  0  0  0  0  0  0              0 V3000
M  V30 BEGIN CTAB
M  V30 COUNTS 43 49 0 0 0
M  V30 BEGIN ATOM
M  V30 1 O 9.1833 -0.2044 0.0 0
M  V30 2 C 8.5955 0.6045 0.0 0
M  V30 3 N 7.601 0.5 0.0 0
M  V30 4 C 9.0022 1.518 0.0 0
M  V30 5 C 7.0132 1.309 0.0 0
M  V30 6 C 7.0132 -0.309 0.0 0
M  V30 7 C 8.4144 2.327 0.0 0
M  V30 8 C 9.9968 1.6226 0.0 0
M  V30 9 C 6.0621 1.0 0.0 0
M  V30 10 C 7.4199 2.2225 0.0 0
M  V30 11 C 6.0621 0.0 0.0 0
M  V30 12 C 8.8212 3.2406 0.0 0 CFG=2
M  V30 13 O 10.4035 2.5361 0.0 0
M  V30 14 N 5.1961 1.5 0.0 0
M  V30 15 C 5.1961 -0.4999 0.0 0
M  V30 16 O 9.2279 4.1541 0.0 0
M  V30 17 C 9.8157 3.3451 0.0 0
M  V30 18 C 8.2334 4.0496 0.0 0
M  V30 19 C 4.3301 1.0 0.0 0
M  V30 20 C 4.3301 0.0 0.0 0
M  V30 21 C 5.1961 -1.4999 0.0 0
M  V30 22 O 10.2224 4.2587 0.0 0
M  V30 23 C 8.6401 4.9631 0.0 0
M  V30 24 C 3.4641 1.4999 0.0 0
M  V30 25 C 3.4641 -0.4999 0.0 0
M  V30 26 C 6.0621 -1.9999 0.0 0
M  V30 27 C 2.598 0.9999 0.0 0
M  V30 28 C 2.598 0.0 0.0 0
M  V30 29 O 1.732 -0.5 0.0 0
M  V30 30 C 0.866 0.0 0.0 0
M  V30 31 O 0.866 1.0 0.0 0
M  V30 32 N 0.0 -0.5 0.0 0
M  V30 33 C -0.866 0.0 0.0 0
M  V30 34 C 0.0 -1.4999 0.0 0
M  V30 35 C -1.732 -0.4999 0.0 0
M  V30 36 C -0.866 -1.9999 0.0 0
M  V30 37 C -1.732 -1.4999 0.0 0
M  V30 38 N -2.598 -1.9999 0.0 0
M  V30 39 C -3.4641 -1.4999 0.0 0
M  V30 40 C -2.598 -2.9999 0.0 0
M  V30 41 C -4.3301 -1.9999 0.0 0
M  V30 42 C -3.4641 -3.4999 0.0 0
M  V30 43 C -4.3301 -2.9999 0.0 0
M  V30 END ATOM
M  V30 BEGIN BOND
M  V30 1 2 1 2
M  V30 2 1 2 3
M  V30 3 1 2 4
M  V30 4 1 3 5
M  V30 5 1 3 6
M  V30 6 2 4 7
M  V30 7 1 4 8
M  V30 8 1 5 9
M  V30 9 2 5 10
M  V30 10 1 6 11
M  V30 11 1 7 12
M  V30 12 1 8 13
M  V30 13 2 9 14
M  V30 14 2 11 15
M  V30 15 1 12 16 CFG=3
M  V30 16 1 12 17
M  V30 17 1 12 18
M  V30 18 1 14 19
M  V30 19 1 15 20
M  V30 20 1 15 21
M  V30 21 2 17 22
M  V30 22 1 18 23
M  V30 23 2 19 24
M  V30 24 2 20 25
M  V30 25 1 21 26
M  V30 26 1 24 27
M  V30 27 1 25 28
M  V30 28 1 28 29
M  V30 29 1 29 30
M  V30 30 2 30 31
M  V30 31 1 30 32
M  V30 32 1 32 33
M  V30 33 1 32 34
M  V30 34 1 33 35
M  V30 35 1 34 36
M  V30 36 1 35 37
M  V30 37 1 37 38
M  V30 38 1 38 39
M  V30 39 1 38 40
M  V30 40 1 39 41
M  V30 41 1 40 42
M  V30 42 1 41 43
M  V30 43 1 7 10
M  V30 44 1 9 11
M  V30 45 1 13 17
M  V30 46 1 19 20
M  V30 47 2 27 28
M  V30 48 1 36 37
M  V30 49 1 42 43
M  V30 END BOND
M  V30 BEGIN COLLECTION
M  V30 MDLV30/STEABS ATOMS=(1 12)
M  V30 END COLLECTION
M  V30 END CTAB
M  END
>  <Drug Name>
Irinotecan

>  <Carbon Count>
33

>  <SMILES String>
O=C(OC1=CC=C(N=C(C(N2C3)=CC([C@@](O)(CC)C(OC4)=O)=C4C2=O)C3=C5CC)C5=C1)N(CC6)CCC6N7CCCCC7

$$$$
Reserpine
Actelion Java MolfileCreator 2.0

  0  0  0  0  0  0              0 V3000
M  V30 BEGIN CTAB
M  V30 COUNTS 44 49 0 0 0
M  V30 BEGIN ATOM
M  V30 1 O 2.598 0.0 0.0 0
M  V30 2 C 1.732 -0.5 0.0 0
M  V30 3 O 0.866 0.0 0.0 0
M  V30 4 C 1.732 -1.5 0.0 0
M  V30 5 C 0.0 -0.5 0.0 0 CFG=1
M  V30 6 C 0.866 -2.0 0.0 0
M  V30 7 C 2.598 -1.9999 0.0 0
M  V30 8 C -0.866 0.0 0.0 0 CFG=2
M  V30 9 C 0.0 -1.4999 0.0 0
M  V30 10 C 0.866 -3.0 0.0 0
M  V30 11 C 2.598 -3.0 0.0 0
M  V30 12 O -0.866 1.0 0.0 0
M  V30 13 C -1.732 -0.4999 0.0 0 CFG=1
M  V30 14 C -0.866 -2.0 0.0 0 CFG=1
M  V30 15 O 0.0 -3.5 0.0 0
M  V30 16 C 1.732 -3.5 0.0 0
M  V30 17 O 3.4641 -3.5 0.0 0
M  V30 18 C -1.732 1.5 0.0 0
M  V30 19 C -2.598 0.0 0.0 0
M  V30 20 C -1.732 -1.5 0.0 0 CFG=2
M  V30 21 C -0.866 -2.9999 0.0 0
M  V30 22 C 0.0 -4.5 0.0 0
M  V30 23 O 1.732 -4.5 0.0 0
M  V30 24 C 4.3301 -3.0 0.0 0
M  V30 25 O -3.4641 -0.4999 0.0 0
M  V30 26 O -2.598 1.0 0.0 0
M  V30 27 C -2.598 -2.0 0.0 0
M  V30 28 N -1.732 -3.4999 0.0 0
M  V30 29 C 2.598 -5.0 0.0 0
M  V30 30 C -3.4641 1.5 0.0 0
M  V30 31 C -2.598 -3.0 0.0 0 CFG=1
M  V30 32 C -1.732 -4.5 0.0 0
M  V30 33 C -3.4641 -3.4999 0.0 0
M  V30 34 C -2.598 -5.0 0.0 0
M  V30 35 N -4.4151 -3.1909 0.0 0
M  V30 36 C -3.4641 -4.5 0.0 0
M  V30 37 C -5.0029 -3.9999 0.0 0
M  V30 38 C -4.4151 -4.809 0.0 0
M  V30 39 C -5.9974 -4.1045 0.0 0
M  V30 40 C -4.8218 -5.7225 0.0 0
M  V30 41 C -6.4042 -5.018 0.0 0
M  V30 42 C -5.8164 -5.827 0.0 0
M  V30 43 O -7.3987 -5.1226 0.0 0
M  V30 44 C -7.8054 -6.0361 0.0 0
M  V30 END ATOM
M  V30 BEGIN BOND
M  V30 1 2 1 2
M  V30 2 1 2 3
M  V30 3 1 2 4
M  V30 4 1 5 3 CFG=3
M  V30 5 2 4 6
M  V30 6 1 4 7
M  V30 7 1 5 8
M  V30 8 1 5 9
M  V30 9 1 6 10
M  V30 10 2 7 11
M  V30 11 1 8 12 CFG=1
M  V30 12 1 8 13
M  V30 13 1 14 9 CFG=3
M  V30 14 1 10 15
M  V30 15 2 10 16
M  V30 16 1 11 17
M  V30 17 1 12 18
M  V30 18 1 13 19 CFG=3
M  V30 19 1 13 20
M  V30 20 1 14 21
M  V30 21 1 15 22
M  V30 22 1 16 23
M  V30 23 1 17 24
M  V30 24 2 19 25
M  V30 25 1 19 26
M  V30 26 1 20 27 CFG=3
M  V30 27 1 21 28
M  V30 28 1 23 29
M  V30 29 1 26 30
M  V30 30 1 27 31
M  V30 31 1 28 32
M  V30 32 1 31 33
M  V30 33 1 32 34
M  V30 34 1 33 35
M  V30 35 2 33 36
M  V30 36 1 35 37
M  V30 37 1 36 38
M  V30 38 1 37 39
M  V30 39 1 38 40
M  V30 40 2 39 41
M  V30 41 2 40 42
M  V30 42 1 41 43
M  V30 43 1 43 44
M  V30 44 1 11 16
M  V30 45 1 14 20
M  V30 46 1 31 28 CFG=1
M  V30 47 1 34 36
M  V30 48 2 37 38
M  V30 49 1 41 42
M  V30 END BOND
M  V30 BEGIN COLLECTION
M  V30 MDLV30/STEABS ATOMS=(6 5 8 13 14 20 31)
M  V30 END COLLECTION
M  V30 END CTAB
M  END
>  <Drug Name>
Reserpine

>  <Carbon Count>
33

>  <SMILES String>
[H][C@@]1(C2)C3=C(C4=C(N3)C=C(OC)C=C4)CCN1C[C@]5([H])[C@]2([C@H](C(OC)=O)[C@@H](OC)[C@H](OC(C6=CC(OC)=C(OC)C(OC)=C6)=O)C5)[H]

$$$$
Ceftolozane
Actelion Java MolfileCreator 2.0

  0  0  0  0  0  0              0 V3000
M  V30 BEGIN CTAB
M  V30 COUNTS 45 48 0 0 0
M  V30 BEGIN ATOM
M  V30 1 S 10.3923 -3.6477 0.0 0
M  V30 2 C 10.7805 -2.1988 0.0 0 CFG=1
M  V30 3 C 11.4529 -4.7084 0.0 0
M  V30 4 N 12.2294 -1.8106 0.0 0
M  V30 5 C 10.3923 -0.75 0.0 0 CFG=1
M  V30 6 C 12.9018 -4.3202 0.0 0
M  V30 7 C 13.29 -2.8713 0.0 0
M  V30 8 C 11.8412 -0.3617 0.0 0
M  V30 9 N 9.0932 0.0 0.0 0
M  V30 10 C 13.9625 -5.3808 0.0 0
M  V30 11 C 14.7389 -2.483 0.0 0
M  V30 12 O 12.5912 0.9372 0.0 0
M  V30 13 C 7.7942 -0.75 0.0 0
M  V30 14 N 13.5742 -6.8297 0.0 0 CHG=1
M  V30 15 O 15.7996 -3.5437 0.0 0
M  V30 16 O 15.1272 -1.0342 0.0 0 CHG=-1
M  V30 17 O 7.7942 -2.25 0.0 0
M  V30 18 C 6.4951 0.0 0.0 0
M  V30 19 N 12.1739 -7.3673 0.0 0
M  V30 20 C 14.5182 -7.9954 0.0 0
M  V30 21 N 5.1961 -0.75 0.0 0
M  V30 22 C 6.4951 1.5 0.0 0
M  V30 23 C 12.2524 -8.8652 0.0 0
M  V30 24 C 10.9159 -6.5503 0.0 0
M  V30 25 C 13.7013 -9.2534 0.0 0
M  V30 26 O 5.1961 -2.25 0.0 0
M  V30 27 N 7.7087 2.3816 0.0 0
M  V30 28 N 5.2816 2.3816 0.0 0
M  V30 29 N 11.0867 -9.8092 0.0 0
M  V30 30 N 14.2388 -10.6538 0.0 0
M  V30 31 C 3.8971 -3.0 0.0 0
M  V30 32 S 7.2451 3.8082 0.0 0
M  V30 33 C 5.7451 3.8082 0.0 0
M  V30 34 C 15.7204 -10.8885 0.0 0
M  V30 35 C 3.8971 -4.5 0.0 0
M  V30 36 C 2.3971 -3.0 0.0 0
M  V30 37 C 3.1471 -1.7009 0.0 0
M  V30 38 N 4.8635 5.0217 0.0 0
M  V30 39 O 16.6643 -9.7227 0.0 0
M  V30 40 N 16.2579 -12.2888 0.0 0
M  V30 41 O 5.1961 -5.25 0.0 0
M  V30 42 O 2.598 -5.25 0.0 0
M  V30 43 C 17.7394 -12.5235 0.0 0
M  V30 44 C 18.277 -13.9239 0.0 0
M  V30 45 N 19.7585 -14.1585 0.0 0
M  V30 END ATOM
M  V30 BEGIN BOND
M  V30 1 1 2 1 CFG=3
M  V30 2 1 1 3
M  V30 3 1 2 4
M  V30 4 1 2 5
M  V30 5 1 3 6
M  V30 6 1 4 7
M  V30 7 1 4 8
M  V30 8 1 5 9 CFG=3
M  V30 9 1 6 10
M  V30 10 1 7 11
M  V30 11 2 8 12
M  V30 12 1 9 13
M  V30 13 1 10 14
M  V30 14 2 11 15
M  V30 15 1 11 16
M  V30 16 2 13 17
M  V30 17 1 13 18
M  V30 18 1 14 19
M  V30 19 2 14 20
M  V30 20 2 18 21
M  V30 21 1 18 22
M  V30 22 1 19 23
M  V30 23 1 19 24
M  V30 24 1 20 25
M  V30 25 1 21 26
M  V30 26 2 22 27
M  V30 27 1 22 28
M  V30 28 1 23 29
M  V30 29 1 25 30
M  V30 30 1 26 31
M  V30 31 1 27 32
M  V30 32 2 28 33
M  V30 33 1 30 34
M  V30 34 1 31 35
M  V30 35 1 31 36
M  V30 36 1 31 37
M  V30 37 1 33 38
M  V30 38 2 34 39
M  V30 39 1 34 40
M  V30 40 2 35 41
M  V30 41 1 35 42
M  V30 42 1 40 43
M  V30 43 1 43 44
M  V30 44 1 44 45
M  V30 45 1 5 8
M  V30 46 2 6 7
M  V30 47 2 23 25
M  V30 48 1 32 33
M  V30 END BOND
M  V30 BEGIN COLLECTION
M  V30 MDLV30/STEABS ATOMS=(2 2 5)
M  V30 END COLLECTION
M  V30 END CTAB
M  END
>  <Drug Name>
Ceftolozane

>  <Carbon Count>
23

>  <SMILES String>
O=C(O)C(N1[C@@]([H])([C@@H](C1=O)NC(/C(C2=NSC(N)=N2)=N\OC(C(O)=O)(C)C)=O)SC3)=C3CN4N(C(C(NC(NCCN)=O)=C4)=N)C

$$$$
Lopinavir
Actelion Java MolfileCreator 2.0

  0  0  0  0  0  0              0 V3000
M  V30 BEGIN CTAB
M  V30 COUNTS 46 49 0 0 0
M  V30 BEGIN ATOM
M  V30 1 O 10.3923 3.7499 0.0 0
M  V30 2 C 11.6913 4.4999 0.0 0
M  V30 3 N 12.9903 3.7499 0.0 0
M  V30 4 N 11.6913 5.9999 0.0 0
M  V30 5 C 12.9903 2.2499 0.0 0 CFG=2
M  V30 6 C 14.2894 4.4999 0.0 0
M  V30 7 C 12.9903 6.7499 0.0 0
M  V30 8 C 11.6913 1.4999 0.0 0
M  V30 9 C 14.2894 1.4999 0.0 0
M  V30 10 C 14.2894 5.9999 0.0 0
M  V30 11 O 11.6913 0.0 0.0 0
M  V30 12 N 10.3923 2.2499 0.0 0
M  V30 13 C 15.5884 2.2499 0.0 0
M  V30 14 C 14.2894 0.0 0.0 0
M  V30 15 C 9.0932 1.4999 0.0 0 CFG=1
M  V30 16 C 7.7942 2.25 0.0 0
M  V30 17 C 9.0932 0.0 0.0 0
M  V30 18 C 7.7942 3.75 0.0 0
M  V30 19 C 7.7942 -0.75 0.0 0 CFG=2
M  V30 20 C 6.4951 4.5 0.0 0
M  V30 21 C 9.0932 4.4999 0.0 0
M  V30 22 O 7.7942 -2.25 0.0 0
M  V30 23 C 6.4951 0.0 0.0 0 CFG=1
M  V30 24 C 6.4951 6.0 0.0 0
M  V30 25 C 9.0932 6.0 0.0 0
M  V30 26 N 6.4951 1.5 0.0 0
M  V30 27 C 5.1961 -0.75 0.0 0
M  V30 28 C 7.7942 6.75 0.0 0
M  V30 29 C 5.1961 2.25 0.0 0
M  V30 30 C 5.1961 -2.25 0.0 0
M  V30 31 O 5.1961 3.75 0.0 0
M  V30 32 C 3.8971 1.5 0.0 0
M  V30 33 C 3.8971 -2.9999 0.0 0
M  V30 34 C 6.4951 -3.0 0.0 0
M  V30 35 O 2.598 2.25 0.0 0
M  V30 36 C 3.8971 -4.4999 0.0 0
M  V30 37 C 6.4951 -4.5 0.0 0
M  V30 38 C 1.299 1.5 0.0 0
M  V30 39 C 5.1961 -5.2499 0.0 0
M  V30 40 C 0.0 2.25 0.0 0
M  V30 41 C 1.299 0.0 0.0 0
M  V30 42 C -1.299 1.5 0.0 0
M  V30 43 C 0.0 3.75 0.0 0
M  V30 44 C 0.0 -0.7499 0.0 0
M  V30 45 C 2.598 -0.7499 0.0 0
M  V30 46 C -1.299 0.0 0.0 0
M  V30 END ATOM
M  V30 BEGIN BOND
M  V30 1 2 1 2
M  V30 2 1 2 3
M  V30 3 1 2 4
M  V30 4 1 5 3 CFG=1
M  V30 5 1 3 6
M  V30 6 1 4 7
M  V30 7 1 5 8
M  V30 8 1 5 9
M  V30 9 1 6 10
M  V30 10 2 8 11
M  V30 11 1 8 12
M  V30 12 1 9 13
M  V30 13 1 9 14
M  V30 14 1 15 12 CFG=3
M  V30 15 1 15 16
M  V30 16 1 15 17
M  V30 17 1 16 18
M  V30 18 1 17 19
M  V30 19 2 18 20
M  V30 20 1 18 21
M  V30 21 1 19 22 CFG=3
M  V30 22 1 19 23
M  V30 23 1 20 24
M  V30 24 2 21 25
M  V30 25 1 23 26 CFG=3
M  V30 26 1 23 27
M  V30 27 2 24 28
M  V30 28 1 26 29
M  V30 29 1 27 30
M  V30 30 2 29 31
M  V30 31 1 29 32
M  V30 32 2 30 33
M  V30 33 1 30 34
M  V30 34 1 32 35
M  V30 35 1 33 36
M  V30 36 2 34 37
M  V30 37 1 35 38
M  V30 38 2 36 39
M  V30 39 2 38 40
M  V30 40 1 38 41
M  V30 41 1 40 42
M  V30 42 1 40 43
M  V30 43 2 41 44
M  V30 44 1 41 45
M  V30 45 2 42 46
M  V30 46 1 7 10
M  V30 47 1 25 28
M  V30 48 1 37 39
M  V30 49 1 44 46
M  V30 END BOND
M  V30 BEGIN COLLECTION
M  V30 MDLV30/STEABS ATOMS=(4 5 15 19 23)
M  V30 END COLLECTION
M  V30 END CTAB
M  END
>  <Drug Name>
Lopinavir

>  <Carbon Count>
37

>  <SMILES String>
O=C1NCCCN1[C@@H](C(C)C)C(NC(CC2=CC=CC=C2)C[C@H](O)C(CC3=CC=CC=C3)NC(COC4=C(C)C=CC=C4C)=O)=O

$$$$
Teniposide
Actelion Java MolfileCreator 2.0

  0  0  0  0  0  0              0 V3000
M  V30 BEGIN CTAB
M  V30 COUNTS 46 53 0 0 0
M  V30 BEGIN ATOM
M  V30 1 S 6.1096 -3.0932 0.0 0
M  V30 2 C 5.1961 -3.5 0.0 0
M  V30 3 C 6.7788 -3.8364 0.0 0
M  V30 4 C 5.3006 -4.4945 0.0 0
M  V30 5 C 4.3301 -3.0 0.0 0 CFG=1
M  V30 6 C 6.2788 -4.7024 0.0 0
M  V30 7 O 4.3301 -2.0 0.0 0
M  V30 8 O 3.4641 -3.5 0.0 0
M  V30 9 C 3.4641 -1.4999 0.0 0 CFG=1
M  V30 10 C 2.598 -3.0 0.0 0
M  V30 11 C 3.4641 -0.5 0.0 0 CFG=2
M  V30 12 C 2.598 -2.0 0.0 0 CFG=1
M  V30 13 O 4.3301 0.0 0.0 0
M  V30 14 C 2.598 0.0 0.0 0 CFG=1
M  V30 15 O 1.732 -1.5 0.0 0
M  V30 16 O 2.598 1.0 0.0 0
M  V30 17 C 1.732 -0.5 0.0 0 CFG=1
M  V30 18 O 0.866 0.0 0.0 0
M  V30 19 C 0.0 -0.5 0.0 0 CFG=2
M  V30 20 C -0.866 0.0 0.0 0
M  V30 21 C 0.0 -1.4999 0.0 0 CFG=2
M  V30 22 C -1.732 -0.4999 0.0 0
M  V30 23 C -0.866 0.9999 0.0 0
M  V30 24 C -0.866 -1.9999 0.0 0 CFG=1
M  V30 25 C 0.7431 -2.1691 0.0 0
M  V30 26 C -2.598 0.0 0.0 0
M  V30 27 C -1.732 -1.4999 0.0 0 CFG=2
M  V30 28 C -1.732 1.5 0.0 0
M  V30 29 C -0.6581 -2.9781 0.0 0
M  V30 30 O 0.3364 -3.0826 0.0 0
M  V30 31 C -2.598 1.0 0.0 0
M  V30 32 C -2.598 -1.9999 0.0 0
M  V30 33 O -1.9399 2.4781 0.0 0
M  V30 34 O -1.3272 -3.7212 0.0 0
M  V30 35 O -3.3412 1.6691 0.0 0
M  V30 36 C -3.4641 -1.4999 0.0 0
M  V30 37 C -2.598 -2.9999 0.0 0
M  V30 38 C -2.9344 2.5826 0.0 0
M  V30 39 C -4.3301 -1.9999 0.0 0
M  V30 40 C -3.4641 -3.4999 0.0 0
M  V30 41 O -5.1961 -1.4999 0.0 0
M  V30 42 C -4.3301 -2.9999 0.0 0
M  V30 43 O -3.4641 -4.4999 0.0 0
M  V30 44 C -6.0621 -1.9999 0.0 0
M  V30 45 O -5.1961 -3.4999 0.0 0
M  V30 46 C -2.598 -5.0 0.0 0
M  V30 END ATOM
M  V30 BEGIN BOND
M  V30 1 1 1 2
M  V30 2 1 1 3
M  V30 3 2 2 4
M  V30 4 1 5 2 CFG=3
M  V30 5 2 3 6
M  V30 6 1 5 7
M  V30 7 1 5 8
M  V30 8 1 9 7 CFG=3
M  V30 9 1 8 10
M  V30 10 1 9 11
M  V30 11 1 9 12
M  V30 12 1 11 13 CFG=1
M  V30 13 1 11 14
M  V30 14 1 12 15 CFG=1
M  V30 15 1 14 16 CFG=3
M  V30 16 1 14 17
M  V30 17 1 17 18 CFG=1
M  V30 18 1 19 18 CFG=1
M  V30 19 1 19 20
M  V30 20 1 19 21
M  V30 21 2 20 22
M  V30 22 1 20 23
M  V30 23 1 21 24
M  V30 24 1 21 25 CFG=1
M  V30 25 1 22 26
M  V30 26 1 22 27
M  V30 27 2 23 28
M  V30 28 1 24 29 CFG=3
M  V30 29 1 25 30
M  V30 30 2 26 31
M  V30 31 1 27 32 CFG=3
M  V30 32 1 28 33
M  V30 33 2 29 34
M  V30 34 1 31 35
M  V30 35 2 32 36
M  V30 36 1 32 37
M  V30 37 1 33 38
M  V30 38 1 36 39
M  V30 39 2 37 40
M  V30 40 1 39 41
M  V30 41 2 39 42
M  V30 42 1 40 43
M  V30 43 1 41 44
M  V30 44 1 42 45
M  V30 45 1 43 46
M  V30 46 1 4 6
M  V30 47 1 10 12
M  V30 48 1 15 17
M  V30 49 1 24 27
M  V30 50 1 28 31
M  V30 51 1 29 30
M  V30 52 1 35 38
M  V30 53 1 40 42
M  V30 END BOND
M  V30 BEGIN COLLECTION
M  V30 MDLV30/STEABS ATOMS=(10 5 9 11 12 14 17 19 21 24 27)
M  V30 END COLLECTION
M  V30 END CTAB
M  END
>  <Drug Name>
Teniposide

>  <Carbon Count>
32

>  <SMILES String>
[H][C@@]12OC(C3=CC=CS3)OC[C@@]1([H])O[C@@]([H])(O[C@H]4[C@]5([H])[C@@](C(OC5)=O)([H])[C@H](C6=CC(OC)=C(O)C(OC)=C6)C7=C4C=C(OCO8)C8=C7)[C@H](O)[C@H]2O

$$$$
Ritonavir
Actelion Java MolfileCreator 2.0

  0  0  0  0  0  0              0 V3000
M  V30 BEGIN CTAB
M  V30 COUNTS 50 53 0 0 0
M  V30 BEGIN ATOM
M  V30 1 S 15.5029 6.8816 0.0 0
M  V30 2 C 14.2894 5.9999 0.0 0
M  V30 3 C 15.0394 8.3082 0.0 0
M  V30 4 C 13.0758 6.8816 0.0 0
M  V30 5 C 14.2894 4.4999 0.0 0
M  V30 6 N 13.5394 8.3082 0.0 0
M  V30 7 O 12.9903 3.75 0.0 0
M  V30 8 C 12.9903 2.25 0.0 0
M  V30 9 O 11.6913 1.5 0.0 0
M  V30 10 N 14.2894 1.4999 0.0 0
M  V30 11 C 14.2894 0.0 0.0 0 CFG=2
M  V30 12 C 12.9903 -0.75 0.0 0 CFG=1
M  V30 13 C 15.5884 -0.75 0.0 0
M  V30 14 O 12.9903 -2.25 0.0 0
M  V30 15 C 11.6913 0.0 0.0 0
M  V30 16 C 16.8874 0.0 0.0 0
M  V30 17 C 10.3923 -0.75 0.0 0 CFG=1
M  V30 18 C 18.1865 -0.75 0.0 0
M  V30 19 C 16.8874 1.4999 0.0 0
M  V30 20 N 9.0932 0.0 0.0 0
M  V30 21 C 10.3923 -2.25 0.0 0
M  V30 22 C 19.4855 0.0 0.0 0
M  V30 23 C 18.1865 2.2499 0.0 0
M  V30 24 C 9.0932 1.5 0.0 0
M  V30 25 C 9.0932 -3.0 0.0 0
M  V30 26 C 19.4855 1.4999 0.0 0
M  V30 27 O 10.3923 2.2499 0.0 0
M  V30 28 C 7.7942 2.25 0.0 0 CFG=1
M  V30 29 C 9.0932 -4.5 0.0 0
M  V30 30 C 7.7942 -2.25 0.0 0
M  V30 31 N 6.4951 1.5 0.0 0
M  V30 32 C 7.7942 3.75 0.0 0
M  V30 33 C 7.7942 -5.25 0.0 0
M  V30 34 C 6.4951 -3.0 0.0 0
M  V30 35 C 5.1961 2.2499 0.0 0
M  V30 36 C 9.0932 4.5 0.0 0
M  V30 37 C 6.4951 4.5 0.0 0
M  V30 38 C 6.4951 -4.5 0.0 0
M  V30 39 O 5.1961 3.75 0.0 0
M  V30 40 N 3.8971 1.4999 0.0 0
M  V30 41 C 2.598 2.2499 0.0 0
M  V30 42 C 3.8971 0.0 0.0 0
M  V30 43 C 1.299 1.4999 0.0 0
M  V30 44 N -0.0712 2.1101 0.0 0
M  V30 45 C 1.1422 0.0082 0.0 0
M  V30 46 C -1.0749 0.9953 0.0 0
M  V30 47 S -0.3249 -0.3036 0.0 0
M  V30 48 C -2.5667 1.1521 0.0 0
M  V30 49 C -3.1768 2.5224 0.0 0
M  V30 50 C -3.4484 -0.0613 0.0 0
M  V30 END ATOM
M  V30 BEGIN BOND
M  V30 1 1 1 2
M  V30 2 1 1 3
M  V30 3 2 2 4
M  V30 4 1 2 5
M  V30 5 2 3 6
M  V30 6 1 5 7
M  V30 7 1 7 8
M  V30 8 2 8 9
M  V30 9 1 8 10
M  V30 10 1 11 10 CFG=1
M  V30 11 1 11 12
M  V30 12 1 11 13
M  V30 13 1 12 14 CFG=1
M  V30 14 1 12 15
M  V30 15 1 13 16
M  V30 16 1 15 17
M  V30 17 2 16 18
M  V30 18 1 16 19
M  V30 19 1 17 20 CFG=3
M  V30 20 1 17 21
M  V30 21 1 18 22
M  V30 22 2 19 23
M  V30 23 1 20 24
M  V30 24 1 21 25
M  V30 25 2 22 26
M  V30 26 2 24 27
M  V30 27 1 24 28
M  V30 28 2 25 29
M  V30 29 1 25 30
M  V30 30 1 28 31 CFG=1
M  V30 31 1 28 32
M  V30 32 1 29 33
M  V30 33 2 30 34
M  V30 34 1 31 35
M  V30 35 1 32 36
M  V30 36 1 32 37
M  V30 37 2 33 38
M  V30 38 2 35 39
M  V30 39 1 35 40
M  V30 40 1 40 41
M  V30 41 1 40 42
M  V30 42 1 41 43
M  V30 43 1 43 44
M  V30 44 2 43 45
M  V30 45 2 44 46
M  V30 46 1 45 47
M  V30 47 1 46 48
M  V30 48 1 48 49
M  V30 49 1 48 50
M  V30 50 1 4 6
M  V30 51 1 23 26
M  V30 52 1 34 38
M  V30 53 1 46 47
M  V30 END BOND
M  V30 BEGIN COLLECTION
M  V30 MDLV30/STEABS ATOMS=(4 11 12 17 28)
M  V30 END COLLECTION
M  V30 END CTAB
M  END
>  <Drug Name>
Ritonavir

>  <Carbon Count>
37

>  <SMILES String>
CC(C)[C@@H](C(N[C@@H](CC1=CC=CC=C1)C[C@H](O)[C@H](CC2=CC=CC=C2)NC(OCC3=CN=CS3)=O)=O)NC(N(C)CC4=CSC(C(C)C)=N4)=O

$$$$
Atazanavir
Actelion Java MolfileCreator 2.0

  0  0  0  0  0  0              0 V3000
M  V30 BEGIN CTAB
M  V30 COUNTS 51 53 0 0 0
M  V30 BEGIN ATOM
M  V30 1 O 14.2894 6.0 0.0 0
M  V30 2 C 14.2894 4.4999 0.0 0
M  V30 3 O 12.9903 3.75 0.0 0
M  V30 4 N 15.5884 3.7499 0.0 0
M  V30 5 C 11.6913 4.5 0.0 0
M  V30 6 C 15.5884 2.2499 0.0 0 CFG=2
M  V30 7 C 14.2894 1.4999 0.0 0
M  V30 8 C 16.8874 1.4999 0.0 0
M  V30 9 O 12.9903 2.25 0.0 0
M  V30 10 N 14.2894 0.0 0.0 0
M  V30 11 C 16.1374 0.2009 0.0 0
M  V30 12 C 18.1865 0.7499 0.0 0
M  V30 13 C 17.6374 2.799 0.0 0
M  V30 14 N 12.9903 -0.75 0.0 0
M  V30 15 C 12.9903 -2.25 0.0 0
M  V30 16 C 11.6913 0.0 0.0 0
M  V30 17 C 14.2894 -3.0 0.0 0
M  V30 18 C 10.3923 -0.75 0.0 0 CFG=2
M  V30 19 C 14.2894 -4.5 0.0 0
M  V30 20 C 15.5884 -2.25 0.0 0
M  V30 21 O 9.0932 0.0 0.0 0
M  V30 22 C 10.3923 -2.2499 0.0 0 CFG=1
M  V30 23 C 15.5884 -5.25 0.0 0
M  V30 24 C 16.8874 -3.0 0.0 0
M  V30 25 N 9.0932 -3.0 0.0 0
M  V30 26 C 11.6913 -3.0 0.0 0
M  V30 27 C 16.8874 -4.5 0.0 0
M  V30 28 C 7.7942 -2.25 0.0 0
M  V30 29 C 11.6913 -4.5 0.0 0
M  V30 30 C 18.1865 -5.25 0.0 0
M  V30 31 O 7.7942 -0.75 0.0 0
M  V30 32 C 6.4951 -3.0 0.0 0 CFG=1
M  V30 33 C 12.9903 -5.25 0.0 0
M  V30 34 C 10.3923 -5.25 0.0 0
M  V30 35 N 18.1865 -6.75 0.0 0
M  V30 36 C 19.4855 -4.5 0.0 0
M  V30 37 N 5.1961 -2.25 0.0 0
M  V30 38 C 6.4951 -4.5 0.0 0
M  V30 39 C 12.9903 -6.75 0.0 0
M  V30 40 C 10.3923 -6.75 0.0 0
M  V30 41 C 19.4855 -7.5 0.0 0
M  V30 42 C 20.7846 -5.25 0.0 0
M  V30 43 C 5.1961 -0.75 0.0 0
M  V30 44 C 7.9951 -4.5 0.0 0
M  V30 45 C 6.4951 -6.0 0.0 0
M  V30 46 C 4.9951 -4.5 0.0 0
M  V30 47 C 11.6913 -7.4999 0.0 0
M  V30 48 C 20.7846 -6.75 0.0 0
M  V30 49 O 6.4951 0.0 0.0 0
M  V30 50 O 3.8971 0.0 0.0 0
M  V30 51 C 3.8971 1.4999 0.0 0
M  V30 END ATOM
M  V30 BEGIN BOND
M  V30 1 2 1 2
M  V30 2 1 2 3
M  V30 3 1 2 4
M  V30 4 1 3 5
M  V30 5 1 6 4 CFG=1
M  V30 6 1 6 7
M  V30 7 1 6 8
M  V30 8 2 7 9
M  V30 9 1 7 10
M  V30 10 1 8 11
M  V30 11 1 8 12
M  V30 12 1 8 13
M  V30 13 1 10 14
M  V30 14 1 14 15
M  V30 15 1 14 16
M  V30 16 1 15 17
M  V30 17 1 16 18
M  V30 18 2 17 19
M  V30 19 1 17 20
M  V30 20 1 18 21 CFG=1
M  V30 21 1 18 22
M  V30 22 1 19 23
M  V30 23 2 20 24
M  V30 24 1 22 25 CFG=3
M  V30 25 1 22 26
M  V30 26 2 23 27
M  V30 27 1 25 28
M  V30 28 1 26 29
M  V30 29 1 27 30
M  V30 30 2 28 31
M  V30 31 1 28 32
M  V30 32 2 29 33
M  V30 33 1 29 34
M  V30 34 2 30 35
M  V30 35 1 30 36
M  V30 36 1 32 37 CFG=3
M  V30 37 1 32 38
M  V30 38 1 33 39
M  V30 39 2 34 40
M  V30 40 1 35 41
M  V30 41 2 36 42
M  V30 42 1 37 43
M  V30 43 1 38 44
M  V30 44 1 38 45
M  V30 45 1 38 46
M  V30 46 2 39 47
M  V30 47 2 41 48
M  V30 48 2 43 49
M  V30 49 1 43 50
M  V30 50 1 50 51
M  V30 51 1 24 27
M  V30 52 1 40 47
M  V30 53 1 42 48
M  V30 END BOND
M  V30 BEGIN COLLECTION
M  V30 MDLV30/STEABS ATOMS=(4 6 18 22 32)
M  V30 END COLLECTION
M  V30 END CTAB
M  END
>  <Drug Name>
Atazanavir

>  <Carbon Count>
38

>  <SMILES String>
O=C([C@H](C(C)(C)C)NC(OC)=O)NN(C[C@H](O)[C@H](CC1=CC=CC=C1)NC([C@H](C(C)(C)C)NC(OC)=O)=O)CC2=CC=C(C3=NC=CC=C3)C=C2

$$$$
Erythromycin
Actelion Java MolfileCreator 2.0

  0  0  0  0  0  0              0 V3000
M  V30 BEGIN CTAB
M  V30 COUNTS 51 53 0 0 0
M  V30 BEGIN ATOM
M  V30 1 O 3.4641 -1.3749 0.0 0
M  V30 2 C 3.4832 -0.2816 0.0 0
M  V30 3 O 4.2051 0.0669 0.0 0
M  V30 4 C 2.4465 -0.1527 0.0 0 CFG=1
M  V30 5 C 5.1961 -0.4999 0.0 0 CFG=1
M  V30 6 C 1.6979 -0.6286 0.0 0 CFG=1
M  V30 7 C 2.3954 0.9105 0.0 0
M  V30 8 C 5.1961 -1.4999 0.0 0 CFG=1
M  V30 9 C 6.0621 0.0 0.0 0
M  V30 10 O 0.866 0.0 0.0 0
M  V30 11 C 1.732 -1.5 0.0 0 CFG=1
M  V30 12 O 4.1961 -1.4999 0.0 0
M  V30 13 C 6.0621 -1.9999 0.0 0 CFG=2
M  V30 14 C 4.7479 -2.347 0.0 0
M  V30 15 C 6.0621 1.0 0.0 0
M  V30 16 C 0.0 -0.5 0.0 0 CFG=2
M  V30 17 C 2.598 -1.9999 0.0 0 CFG=1
M  V30 18 C 0.866 -2.0 0.0 0
M  V30 19 O 6.9282 -1.4999 0.0 0
M  V30 20 C 6.0621 -2.9999 0.0 0 CFG=2
M  V30 21 O -0.866 0.0 0.0 0
M  V30 22 C 0.0 -1.4999 0.0 0
M  V30 23 O 3.4641 -1.6874 0.0 0
M  V30 24 C 2.598 -2.9999 0.0 0 CFG=2
M  V30 25 C 5.1961 -3.4999 0.0 0
M  V30 26 C 6.9282 -3.4999 0.0 0
M  V30 27 C -1.732 -0.4999 0.0 0 CFG=2
M  V30 28 C -0.866 -1.9999 0.0 0 CFG=2
M  V30 29 C 3.3751 -0.5918 0.0 0 CFG=2
M  V30 30 O 1.598 -2.9999 0.0 0
M  V30 31 C 3.4641 -3.4999 0.0 0
M  V30 32 C 2.098 -3.866 0.0 0
M  V30 33 O 5.1961 -4.4999 0.0 0
M  V30 34 C 4.3301 -2.9999 0.0 0 CFG=1
M  V30 35 C -1.732 -1.4999 0.0 0 CFG=1
M  V30 36 C -2.598 0.0 0.0 0
M  V30 37 O -0.866 -2.9999 0.0 0
M  V30 38 C -1.732 -2.4999 0.0 0
M  V30 39 O 4.3301 -0.2321 0.0 0
M  V30 40 C 2.6951 0.0909 0.0 0 CFG=2
M  V30 41 C 4.3301 -1.9999 0.0 0
M  V30 42 O -2.598 -1.9999 0.0 0
M  V30 43 C -1.732 -3.4999 0.0 0
M  V30 44 C 4.3301 1.0 0.0 0 CFG=1
M  V30 45 O 1.792 -0.274 0.0 0
M  V30 46 C 2.7254 1.0562 0.0 0 CFG=2
M  V30 47 C 3.4641 1.5 0.0 0
M  V30 48 C 5.1961 1.5 0.0 0
M  V30 49 N 1.732 1.5 0.0 0
M  V30 50 C 1.732 2.5 0.0 0
M  V30 51 C 0.866 1.0 0.0 0
M  V30 END ATOM
M  V30 BEGIN BOND
M  V30 1 2 1 2
M  V30 2 1 2 3
M  V30 3 1 2 4
M  V30 4 1 3 5
M  V30 5 1 4 6
M  V30 6 1 4 7 CFG=1
M  V30 7 1 5 8
M  V30 8 1 5 9 CFG=3
M  V30 9 1 6 10 CFG=3
M  V30 10 1 6 11
M  V30 11 1 8 12 CFG=3
M  V30 12 1 8 13
M  V30 13 1 8 14
M  V30 14 1 9 15
M  V30 15 1 16 10 CFG=1
M  V30 16 1 11 17
M  V30 17 1 11 18 CFG=1
M  V30 18 1 13 19 CFG=3
M  V30 19 1 13 20
M  V30 20 1 16 21
M  V30 21 1 16 22
M  V30 22 1 17 23 CFG=1
M  V30 23 1 17 24
M  V30 24 1 20 25
M  V30 25 1 20 26 CFG=1
M  V30 26 1 21 27
M  V30 27 1 22 28
M  V30 28 1 29 23 CFG=1
M  V30 29 1 24 30 CFG=1
M  V30 30 1 24 31
M  V30 31 1 24 32
M  V30 32 2 25 33
M  V30 33 1 25 34
M  V30 34 1 27 35
M  V30 35 1 27 36 CFG=3
M  V30 36 1 28 37
M  V30 37 1 28 38 CFG=3
M  V30 38 1 29 39
M  V30 39 1 29 40
M  V30 40 1 34 41 CFG=1
M  V30 41 1 35 42 CFG=1
M  V30 42 1 37 43
M  V30 43 1 39 44
M  V30 44 1 40 45 CFG=3
M  V30 45 1 40 46
M  V30 46 1 44 47
M  V30 47 1 44 48 CFG=1
M  V30 48 1 46 49 CFG=1
M  V30 49 1 49 50
M  V30 50 1 49 51
M  V30 51 1 28 35
M  V30 52 1 31 34
M  V30 53 1 46 47
M  V30 END BOND
M  V30 BEGIN COLLECTION
M  V30 MDLV30/STEABS ATOMS=(18 4 5 6 8 11 13 16 17 20 24 27 28 29 34 35 40 44 46)
M  V30 END COLLECTION
M  V30 END CTAB
M  END
>  <Drug Name>
Erythromycin

>  <Carbon Count>
37

>  <SMILES String>
C[C@@H]([C@@H]([C@H](C(O[C@@H]([C@@]([C@H](O)[C@@H](C)C1=O)(C)O)CC)=O)C)O[C@H]2C[C@]([C@@H](O)[C@H](C)O2)(OC)C)[C@H]([C@](C)(O)C[C@H]1C)O[C@H](O[C@@H](C[C@@H]3N(C)C)C)[C@@H]3O

$$$$
Clarithromycin
Actelion Java MolfileCreator 2.0

  0  0  0  0  0  0              0 V3000
M  V30 BEGIN CTAB
M  V30 COUNTS 52 54 0 0 0
M  V30 BEGIN ATOM
M  V30 1 O 3.4641 -1.3749 0.0 0
M  V30 2 C 3.4832 -0.2816 0.0 0
M  V30 3 O 4.2051 0.0669 0.0 0
M  V30 4 C 2.4465 -0.1527 0.0 0 CFG=2
M  V30 5 C 5.1961 -0.4999 0.0 0 CFG=2
M  V30 6 C 1.6979 -0.6286 0.0 0 CFG=2
M  V30 7 C 2.3954 0.9105 0.0 0
M  V30 8 C 5.1961 -1.4999 0.0 0 CFG=2
M  V30 9 C 6.0621 0.0 0.0 0
M  V30 10 O 0.866 0.0 0.0 0
M  V30 11 C 1.732 -1.5 0.0 0 CFG=2
M  V30 12 O 4.1961 -1.4999 0.0 0
M  V30 13 C 6.0621 -1.9999 0.0 0 CFG=1
M  V30 14 C 4.7479 -2.347 0.0 0
M  V30 15 C 6.0621 1.0 0.0 0
M  V30 16 C 0.0 -0.5 0.0 0 CFG=1
M  V30 17 C 2.598 -1.9999 0.0 0 CFG=2
M  V30 18 C 0.866 -2.0 0.0 0
M  V30 19 O 6.9282 -1.4999 0.0 0
M  V30 20 C 6.0621 -2.9999 0.0 0 CFG=1
M  V30 21 O -0.866 0.0 0.0 0
M  V30 22 C 0.0 -1.4999 0.0 0
M  V30 23 O 3.4641 -1.6874 0.0 0
M  V30 24 C 2.598 -2.9999 0.0 0 CFG=1
M  V30 25 C 5.1961 -3.4999 0.0 0
M  V30 26 C 6.9282 -3.4999 0.0 0
M  V30 27 C -1.732 -0.4999 0.0 0 CFG=1
M  V30 28 C -0.866 -1.9999 0.0 0 CFG=1
M  V30 29 C 3.3751 -0.5918 0.0 0 CFG=1
M  V30 30 O 1.732 -3.5 0.0 0
M  V30 31 C 3.4641 -3.4999 0.0 0
M  V30 32 C 1.732 -2.5 0.0 0
M  V30 33 O 5.1961 -4.4999 0.0 0
M  V30 34 C 4.3301 -2.9999 0.0 0 CFG=2
M  V30 35 C -1.732 -1.4999 0.0 0 CFG=2
M  V30 36 C -2.598 0.0 0.0 0
M  V30 37 O -0.866 -2.9999 0.0 0
M  V30 38 C -1.732 -2.4999 0.0 0
M  V30 39 O 4.3301 -0.2321 0.0 0
M  V30 40 C 2.6951 0.0909 0.0 0 CFG=1
M  V30 41 C 0.866 -3.0 0.0 0
M  V30 42 C 4.3301 -1.9999 0.0 0
M  V30 43 O -2.598 -1.9999 0.0 0
M  V30 44 C -1.732 -3.4999 0.0 0
M  V30 45 C 4.3301 1.0 0.0 0 CFG=2
M  V30 46 O 1.792 -0.274 0.0 0
M  V30 47 C 2.7254 1.0562 0.0 0 CFG=1
M  V30 48 C 3.4641 1.5 0.0 0
M  V30 49 C 5.1961 1.5 0.0 0
M  V30 50 N 1.732 1.5 0.0 0
M  V30 51 C 1.732 2.5 0.0 0
M  V30 52 C 0.866 1.0 0.0 0
M  V30 END ATOM
M  V30 BEGIN BOND
M  V30 1 2 1 2
M  V30 2 1 2 3
M  V30 3 1 2 4
M  V30 4 1 3 5
M  V30 5 1 4 6
M  V30 6 1 4 7 CFG=3
M  V30 7 1 5 8
M  V30 8 1 5 9 CFG=1
M  V30 9 1 6 10 CFG=1
M  V30 10 1 6 11
M  V30 11 1 8 12 CFG=1
M  V30 12 1 8 13
M  V30 13 1 8 14
M  V30 14 1 9 15
M  V30 15 1 16 10 CFG=3
M  V30 16 1 11 17
M  V30 17 1 11 18 CFG=3
M  V30 18 1 13 19 CFG=1
M  V30 19 1 13 20
M  V30 20 1 16 21
M  V30 21 1 16 22
M  V30 22 1 17 23 CFG=3
M  V30 23 1 17 24
M  V30 24 1 20 25
M  V30 25 1 20 26 CFG=3
M  V30 26 1 21 27
M  V30 27 1 22 28
M  V30 28 1 29 23 CFG=3
M  V30 29 1 24 30
M  V30 30 1 24 31
M  V30 31 1 24 32 CFG=1
M  V30 32 2 25 33
M  V30 33 1 25 34
M  V30 34 1 27 35
M  V30 35 1 27 36 CFG=1
M  V30 36 1 28 37
M  V30 37 1 28 38 CFG=1
M  V30 38 1 29 39
M  V30 39 1 29 40
M  V30 40 1 30 41
M  V30 41 1 34 42 CFG=3
M  V30 42 1 35 43 CFG=3
M  V30 43 1 37 44
M  V30 44 1 39 45
M  V30 45 1 40 46 CFG=1
M  V30 46 1 40 47
M  V30 47 1 45 48
M  V30 48 1 45 49 CFG=3
M  V30 49 1 47 50 CFG=3
M  V30 50 1 50 51
M  V30 51 1 50 52
M  V30 52 1 28 35
M  V30 53 1 31 34
M  V30 54 1 47 48
M  V30 END BOND
M  V30 BEGIN COLLECTION
M  V30 MDLV30/STERAC1 ATOMS=(18 4 5 6 8 11 13 16 17 20 24 27 28 29 34 35 40 45 47)
M  V30 END COLLECTION
M  V30 END CTAB
M  END
>  <Drug Name>
Clarithromycin

>  <Carbon Count>
38

>  <SMILES String>
O=C(O[C@@H]([C@](O)(C)[C@H](O)[C@@H](C)C([C@H](C)C[C@@]1(C)OC)=O)CC)[C@H](C)[C@](O[C@H](O[C@@H](C)[C@@H]2O)C[C@@]2(C)OC)([H])[C@H](C)[C@H]1O[C@H](O[C@H](C)C3)[C@H](O)[C@H]3N(C)C

$$$$
Clarithromycin
Actelion Java MolfileCreator 2.0

  0  0  0  0  0  0              0 V3000
M  V30 BEGIN CTAB
M  V30 COUNTS 52 54 0 0 0
M  V30 BEGIN ATOM
M  V30 1 O 3.4641 -1.3749 0.0 0
M  V30 2 C 3.4832 -0.2816 0.0 0
M  V30 3 O 4.2051 0.0669 0.0 0
M  V30 4 C 2.4465 -0.1527 0.0 0 CFG=2
M  V30 5 C 5.1961 -0.4999 0.0 0 CFG=2
M  V30 6 C 1.6979 -0.6286 0.0 0 CFG=2
M  V30 7 C 2.3954 0.9105 0.0 0
M  V30 8 C 5.1961 -1.4999 0.0 0 CFG=2
M  V30 9 C 6.0621 0.0 0.0 0
M  V30 10 O 0.866 0.0 0.0 0
M  V30 11 C 1.732 -1.5 0.0 0 CFG=2
M  V30 12 O 4.1961 -1.4999 0.0 0
M  V30 13 C 6.0621 -1.9999 0.0 0 CFG=1
M  V30 14 C 4.7479 -2.347 0.0 0
M  V30 15 C 6.0621 1.0 0.0 0
M  V30 16 C 0.0 -0.5 0.0 0 CFG=1
M  V30 17 C 2.598 -1.9999 0.0 0 CFG=2
M  V30 18 C 0.866 -2.0 0.0 0
M  V30 19 O 6.9282 -1.4999 0.0 0
M  V30 20 C 6.0621 -2.9999 0.0 0 CFG=1
M  V30 21 O -0.866 0.0 0.0 0
M  V30 22 C 0.0 -1.4999 0.0 0
M  V30 23 O 3.4641 -1.6874 0.0 0
M  V30 24 C 2.598 -2.9999 0.0 0 CFG=1
M  V30 25 C 5.1961 -3.4999 0.0 0
M  V30 26 C 6.9282 -3.4999 0.0 0
M  V30 27 C -1.732 -0.4999 0.0 0 CFG=1
M  V30 28 C -0.866 -1.9999 0.0 0 CFG=1
M  V30 29 C 3.3751 -0.5918 0.0 0 CFG=1
M  V30 30 O 1.732 -3.5 0.0 0
M  V30 31 C 3.4641 -3.4999 0.0 0
M  V30 32 C 1.732 -2.5 0.0 0
M  V30 33 O 5.1961 -4.4999 0.0 0
M  V30 34 C 4.3301 -2.9999 0.0 0 CFG=2
M  V30 35 C -1.732 -1.4999 0.0 0 CFG=2
M  V30 36 C -2.598 0.0 0.0 0
M  V30 37 O -0.866 -2.9999 0.0 0
M  V30 38 C -1.732 -2.4999 0.0 0
M  V30 39 O 4.3301 -0.2321 0.0 0
M  V30 40 C 2.6951 0.0909 0.0 0 CFG=1
M  V30 41 C 0.866 -3.0 0.0 0
M  V30 42 C 4.3301 -1.9999 0.0 0
M  V30 43 O -2.598 -1.9999 0.0 0
M  V30 44 C -1.732 -3.4999 0.0 0
M  V30 45 C 4.3301 1.0 0.0 0 CFG=2
M  V30 46 O 1.792 -0.274 0.0 0
M  V30 47 C 2.7254 1.0562 0.0 0 CFG=1
M  V30 48 C 3.4641 1.5 0.0 0
M  V30 49 C 5.1961 1.5 0.0 0
M  V30 50 N 1.732 1.5 0.0 0
M  V30 51 C 1.732 2.5 0.0 0
M  V30 52 C 0.866 1.0 0.0 0
M  V30 END ATOM
M  V30 BEGIN BOND
M  V30 1 2 1 2
M  V30 2 1 2 3
M  V30 3 1 2 4
M  V30 4 1 3 5
M  V30 5 1 4 6
M  V30 6 1 4 7 CFG=3
M  V30 7 1 5 8
M  V30 8 1 5 9 CFG=1
M  V30 9 1 6 10 CFG=1
M  V30 10 1 6 11
M  V30 11 1 8 12 CFG=1
M  V30 12 1 8 13
M  V30 13 1 8 14
M  V30 14 1 9 15
M  V30 15 1 16 10 CFG=3
M  V30 16 1 11 17
M  V30 17 1 11 18 CFG=3
M  V30 18 1 13 19 CFG=1
M  V30 19 1 13 20
M  V30 20 1 16 21
M  V30 21 1 16 22
M  V30 22 1 17 23 CFG=3
M  V30 23 1 17 24
M  V30 24 1 20 25
M  V30 25 1 20 26 CFG=3
M  V30 26 1 21 27
M  V30 27 1 22 28
M  V30 28 1 29 23 CFG=3
M  V30 29 1 24 30
M  V30 30 1 24 31
M  V30 31 1 24 32 CFG=1
M  V30 32 2 25 33
M  V30 33 1 25 34
M  V30 34 1 27 35
M  V30 35 1 27 36 CFG=1
M  V30 36 1 28 37
M  V30 37 1 28 38 CFG=1
M  V30 38 1 29 39
M  V30 39 1 29 40
M  V30 40 1 30 41
M  V30 41 1 34 42 CFG=3
M  V30 42 1 35 43 CFG=3
M  V30 43 1 37 44
M  V30 44 1 39 45
M  V30 45 1 40 46 CFG=1
M  V30 46 1 40 47
M  V30 47 1 45 48
M  V30 48 1 45 49 CFG=3
M  V30 49 1 47 50 CFG=3
M  V30 50 1 50 51
M  V30 51 1 50 52
M  V30 52 1 28 35
M  V30 53 1 31 34
M  V30 54 1 47 48
M  V30 END BOND
M  V30 BEGIN COLLECTION
M  V30 MDLV30/STERAC1 ATOMS=(18 4 5 6 8 11 13 16 17 20 24 27 28 29 34 35 40 45 47)
M  V30 END COLLECTION
M  V30 END CTAB
M  END
>  <Drug Name>
Clarithromycin

>  <Carbon Count>
38

>  <SMILES String>
O[C@@H]([C@@](O)(C)[C@@H](CC)O1)[C@@H](C)C([C@H](C)C[C@@](C)(OC)[C@H](O[C@H]2[C@H](O)[C@@H](N(C)C)C[C@@H](C)O2)[C@@H](C)[C@H](O[C@@H]3O[C@@H](C)[C@H](O)[C@](C)(OC)C3)[C@@H](C)C1=O)=O

$$$$
Grazoprevir
Actelion Java MolfileCreator 2.0

  0  0  0  0  0  0              0 V3000
M  V30 BEGIN CTAB
M  V30 COUNTS 54 60 0 0 0
M  V30 BEGIN ATOM
M  V30 1 S -3.2247 -3.4567 0.0 0
M  V30 2 O -3.2247 -4.4567 0.0 0
M  V30 3 O -2.3587 -3.9567 0.0 0
M  V30 4 N -2.7247 -2.5907 0.0 0
M  V30 5 C -4.2247 -3.4567 0.0 0
M  V30 6 C -1.7247 -2.5907 0.0 0
M  V30 7 C -5.0907 -2.9567 0.0 0
M  V30 8 C -5.0907 -3.9567 0.0 0
M  V30 9 O -1.2247 -3.4567 0.0 0
M  V30 10 C -1.2247 -1.7247 0.0 0 CFG=2
M  V30 11 N -0.5176 -2.4318 0.0 0
M  V30 12 C -1.2247 -0.7247 0.0 0 CFG=1
M  V30 13 C -0.3587 -1.2247 0.0 0
M  V30 14 C 0.4482 -2.173 0.0 0
M  V30 15 C -1.7247 0.1412 0.0 0
M  V30 16 O 0.7071 -1.2071 0.0 0
M  V30 17 C 1.1553 -2.8801 0.0 0 CFG=1
M  V30 18 C -1.2247 1.0073 0.0 0
M  V30 19 N 2.143 -2.7237 0.0 0
M  V30 20 C 0.9989 -3.8678 0.0 0
M  V30 21 C 2.8102 -1.8948 0.0 0
M  V30 22 C 2.597 -3.6147 0.0 0
M  V30 23 C 1.8899 -4.3218 0.0 0 CFG=2
M  V30 24 O 2.4504 -0.9617 0.0 0
M  V30 25 C 3.7979 -2.0512 0.0 0 CFG=1
M  V30 26 O 2.2683 -5.3162 0.0 0
M  V30 27 N 4.1562 -2.9848 0.0 0
M  V30 28 C 4.4272 -1.2741 0.0 0
M  V30 29 C 1.6389 -6.0934 0.0 0
M  V30 30 C 5.1439 -3.1412 0.0 0
M  V30 31 C 3.65 -0.6447 0.0 0
M  V30 32 C 5.0565 -0.4969 0.0 0
M  V30 33 C 5.2043 -1.9034 0.0 0
M  V30 34 N 0.6513 -5.9369 0.0 0
M  V30 35 C 1.9973 -7.027 0.0 0
M  V30 36 O 5.5023 -4.0748 0.0 0
M  V30 37 O 5.7732 -2.3641 0.0 0
M  V30 38 C 0.0219 -6.7141 0.0 0
M  V30 39 N 1.368 -7.8041 0.0 0
M  V30 40 C 2.985 -7.1834 0.0 0
M  V30 41 C 6.49 -4.2312 0.0 0 CFG=1
M  V30 42 C 0.3803 -7.6477 0.0 0
M  V30 43 C -0.9656 -6.5577 0.0 0
M  V30 44 C 3.6143 -6.4062 0.0 0
M  V30 45 C 6.8483 -5.1648 0.0 0 CFG=1
M  V30 46 C 7.4777 -4.3877 0.0 0
M  V30 47 C -0.2489 -8.4248 0.0 0
M  V30 48 C -1.595 -7.3348 0.0 0
M  V30 49 C 4.602 -6.5627 0.0 0
M  V30 50 C 6.219 -5.942 0.0 0
M  V30 51 C -1.2366 -8.2684 0.0 0
M  V30 52 O -2.5827 -7.1784 0.0 0
M  V30 53 C 5.2313 -5.7855 0.0 0
M  V30 54 C -3.212 -7.9555 0.0 0
M  V30 END ATOM
M  V30 BEGIN BOND
M  V30 1 2 1 2
M  V30 2 2 1 3
M  V30 3 1 1 4
M  V30 4 1 1 5
M  V30 5 2 4 6 CFG=2
M  V30 6 1 5 7
M  V30 7 1 5 8
M  V30 8 1 6 9
M  V30 9 1 6 10
M  V30 10 1 10 11 CFG=1
M  V30 11 1 10 12
M  V30 12 1 10 13
M  V30 13 2 11 14 CFG=2
M  V30 14 1 12 15 CFG=3
M  V30 15 1 14 16
M  V30 16 1 17 14 CFG=1
M  V30 17 2 15 18
M  V30 18 1 17 19
M  V30 19 1 17 20
M  V30 20 1 19 21
M  V30 21 1 19 22
M  V30 22 1 20 23
M  V30 23 2 21 24
M  V30 24 1 21 25
M  V30 25 1 23 26 CFG=3
M  V30 26 1 25 27
M  V30 27 1 25 28 CFG=3
M  V30 28 1 26 29
M  V30 29 2 27 30 CFG=2
M  V30 30 1 28 31
M  V30 31 1 28 32
M  V30 32 1 28 33
M  V30 33 2 29 34
M  V30 34 1 29 35
M  V30 35 1 30 36
M  V30 36 1 30 37
M  V30 37 1 34 38
M  V30 38 2 35 39
M  V30 39 1 35 40
M  V30 40 1 36 41
M  V30 41 1 38 42
M  V30 42 2 38 43
M  V30 43 1 40 44
M  V30 44 1 41 45
M  V30 45 1 41 46 CFG=3
M  V30 46 2 42 47
M  V30 47 1 43 48
M  V30 48 1 44 49
M  V30 49 1 45 50
M  V30 50 1 47 51
M  V30 51 1 48 52
M  V30 52 1 49 53
M  V30 53 1 52 54
M  V30 54 1 7 8
M  V30 55 1 12 13
M  V30 56 1 22 23
M  V30 57 1 39 42
M  V30 58 1 45 46 CFG=1
M  V30 59 2 48 51
M  V30 60 1 50 53
M  V30 END BOND
M  V30 BEGIN COLLECTION
M  V30 MDLV30/STEABS ATOMS=(7 10 12 17 23 25 41 45)
M  V30 END COLLECTION
M  V30 END CTAB
M  END
>  <Drug Name>
Grazoprevir

>  <Carbon Count>
38

>  <SMILES String>
COC1=CC2=C(N=C(CCCCC[C@@H]3C[C@H]3OC(N[C@H]4C(C)(C)C)=O)C(O[C@@H](C5)C[C@@H](C(N[C@@]6(C(NS(=O)(C7CC7)=O)=O)[C@H](C6)C=C)=O)N5C4=O)=N2)C=C1

$$$$
Cobicistat
Actelion Java MolfileCreator 2.0

  0  0  0  0  0  0              0 V3000
M  V30 BEGIN CTAB
M  V30 COUNTS 54 58 0 0 0
M  V30 BEGIN ATOM
M  V30 1 S 22.1549 -0.1398 0.0 0
M  V30 2 C 20.7846 -0.75 0.0 0
M  V30 3 C 23.1586 -1.2546 0.0 0
M  V30 4 C 20.9414 -2.2417 0.0 0
M  V30 5 C 19.4855 0.0 0.0 0
M  V30 6 N 22.4086 -2.5536 0.0 0
M  V30 7 O 18.1865 -0.75 0.0 0
M  V30 8 C 16.8874 0.0 0.0 0
M  V30 9 O 16.8874 1.5 0.0 0
M  V30 10 N 15.5884 -0.75 0.0 0
M  V30 11 C 14.2894 0.0 0.0 0 CFG=1
M  V30 12 C 14.2894 1.5 0.0 0
M  V30 13 C 12.9903 -0.75 0.0 0
M  V30 14 C 12.9903 2.25 0.0 0
M  V30 15 C 11.6913 0.0 0.0 0
M  V30 16 C 12.9903 3.75 0.0 0
M  V30 17 C 11.6913 1.5 0.0 0
M  V30 18 C 10.3923 -0.75 0.0 0 CFG=1
M  V30 19 C 11.6913 4.5 0.0 0
M  V30 20 C 10.3923 2.25 0.0 0
M  V30 21 N 9.0932 0.0 0.0 0
M  V30 22 C 10.3923 -2.25 0.0 0
M  V30 23 C 10.3923 3.75 0.0 0
M  V30 24 C 7.7942 -0.75 0.0 0
M  V30 25 C 11.6913 -3.0 0.0 0
M  V30 26 O 7.7942 -2.25 0.0 0
M  V30 27 C 6.4951 0.0 0.0 0 CFG=1
M  V30 28 C 11.6913 -4.5 0.0 0
M  V30 29 C 12.9903 -2.25 0.0 0
M  V30 30 N 5.1961 -0.75 0.0 0
M  V30 31 C 6.4951 1.4999 0.0 0
M  V30 32 C 12.9903 -5.25 0.0 0
M  V30 33 C 14.2894 -3.0 0.0 0
M  V30 34 C 3.8971 0.0 0.0 0
M  V30 35 C 7.7942 2.2499 0.0 0
M  V30 36 C 14.2894 -4.5 0.0 0
M  V30 37 O 3.8971 1.5 0.0 0
M  V30 38 N 2.598 -0.75 0.0 0
M  V30 39 N 7.7942 3.7499 0.0 0
M  V30 40 C 1.299 0.0 0.0 0
M  V30 41 C 2.598 -2.25 0.0 0
M  V30 42 C 9.0932 4.4999 0.0 0
M  V30 43 C 6.4951 4.5 0.0 0
M  V30 44 C 0.0 -0.75 0.0 0
M  V30 45 C 9.0932 5.9999 0.0 0
M  V30 46 C 6.4951 6.0 0.0 0
M  V30 47 N -1.3703 -0.1398 0.0 0
M  V30 48 C -0.1567 -2.2417 0.0 0
M  V30 49 O 7.7942 6.7499 0.0 0
M  V30 50 C -2.374 -1.2546 0.0 0
M  V30 51 S -1.624 -2.5536 0.0 0
M  V30 52 C -3.8657 -1.0978 0.0 0
M  V30 53 C -4.4759 0.2724 0.0 0
M  V30 54 C -4.7474 -2.3113 0.0 0
M  V30 END ATOM
M  V30 BEGIN BOND
M  V30 1 1 1 2
M  V30 2 1 1 3
M  V30 3 2 2 4
M  V30 4 1 2 5
M  V30 5 2 3 6
M  V30 6 1 5 7
M  V30 7 1 7 8
M  V30 8 2 8 9
M  V30 9 1 8 10
M  V30 10 1 11 10 CFG=3
M  V30 11 1 11 12
M  V30 12 1 11 13
M  V30 13 1 12 14
M  V30 14 1 13 15
M  V30 15 2 14 16
M  V30 16 1 14 17
M  V30 17 1 15 18
M  V30 18 1 16 19
M  V30 19 2 17 20
M  V30 20 1 18 21 CFG=3
M  V30 21 1 18 22
M  V30 22 2 19 23
M  V30 23 1 21 24
M  V30 24 1 22 25
M  V30 25 2 24 26
M  V30 26 1 24 27
M  V30 27 2 25 28
M  V30 28 1 25 29
M  V30 29 1 27 30 CFG=1
M  V30 30 1 27 31
M  V30 31 1 28 32
M  V30 32 2 29 33
M  V30 33 1 30 34
M  V30 34 1 31 35
M  V30 35 2 32 36
M  V30 36 2 34 37
M  V30 37 1 34 38
M  V30 38 1 35 39
M  V30 39 1 38 40
M  V30 40 1 38 41
M  V30 41 1 39 42
M  V30 42 1 39 43
M  V30 43 1 40 44
M  V30 44 1 42 45
M  V30 45 1 43 46
M  V30 46 1 44 47
M  V30 47 2 44 48
M  V30 48 1 45 49
M  V30 49 2 47 50
M  V30 50 1 48 51
M  V30 51 1 50 52
M  V30 52 1 52 53
M  V30 53 1 52 54
M  V30 54 1 4 6
M  V30 55 1 20 23
M  V30 56 1 33 36
M  V30 57 1 46 49
M  V30 58 1 50 51
M  V30 END BOND
M  V30 BEGIN COLLECTION
M  V30 MDLV30/STEABS ATOMS=(3 11 18 27)
M  V30 END COLLECTION
M  V30 END CTAB
M  END
>  <Drug Name>
Cobicistat

>  <Carbon Count>
40

>  <SMILES String>
O=C(OCC1=CN=CS1)N(C)[C@@H](CC2=CC=CC=C2)CC[C@H](CC3=CC=CC=C3)NC([C@H](CCN4CCOCC4)NC(NCC5=CSC(C(C)C)=N5)=O)=O

$$$$
Paritaprevir
Actelion Java MolfileCreator 2.0

  0  0  0  0  0  0              0 V3000
M  V30 BEGIN CTAB
M  V30 COUNTS 55 62 0 0 0
M  V30 BEGIN ATOM
M  V30 1 S 3.9196 0.0 0.0 0
M  V30 2 O 4.674 1.3065 0.0 0
M  V30 3 O 3.1653 1.3065 0.0 0
M  V30 4 N 2.6131 -0.7543 0.0 0
M  V30 5 C 5.2262 -0.7543 0.0 0
M  V30 6 C 1.3303 -0.1824 0.0 0
M  V30 7 C 5.9806 -2.0609 0.0 0
M  V30 8 C 6.7349 -0.7543 0.0 0
M  V30 9 O 1.538 1.418 0.0 0
M  V30 10 C -0.0788 -0.8515 0.0 0 CFG=1
M  V30 11 N -0.5608 0.5921 0.0 0
M  V30 12 C -0.8867 -1.9749 0.0 0 CFG=1
M  V30 13 C 0.6136 -2.1326 0.0 0
M  V30 14 C -0.7486 1.9438 0.0 0
M  V30 15 C -2.3216 -1.5086 0.0 0
M  V30 16 O 0.8051 2.5555 0.0 0
M  V30 17 C -1.8865 2.5984 0.0 0 CFG=2
M  V30 18 C -2.241 -0.102 0.0 0
M  V30 19 N -3.0008 1.6867 0.0 0
M  V30 20 C -2.4933 4.0745 0.0 0
M  V30 21 C -0.8713 0.3433 0.0 0
M  V30 22 C -2.4328 0.5231 0.0 0
M  V30 23 C -4.3074 2.4411 0.0 0
M  V30 24 C -3.9937 3.9168 0.0 0 CFG=1
M  V30 25 C -0.0685 1.7309 0.0 0
M  V30 26 O -3.1415 -0.998 0.0 0
M  V30 27 C -1.0645 0.5504 0.0 0 CFG=2
M  V30 28 O -5.0032 5.038 0.0 0
M  V30 29 C 1.0973 1.7991 0.0 0
M  V30 30 N -0.397 1.8464 0.0 0
M  V30 31 C 0.3174 -0.3629 0.0 0
M  V30 32 C -6.4789 4.7243 0.0 0
M  V30 33 C 1.7248 0.3106 0.0 0
M  V30 34 C -1.3504 3.0917 0.0 0
M  V30 35 N -7.4884 5.8455 0.0 0
M  V30 36 C -6.9451 3.2894 0.0 0
M  V30 37 O -2.9254 2.7303 0.0 0
M  V30 38 C -0.9638 4.457 0.0 0
M  V30 39 C -8.9642 5.5318 0.0 0
M  V30 40 C -8.4209 2.9758 0.0 0
M  V30 41 C -5.9356 2.1683 0.0 0
M  V30 42 N -1.9733 5.5782 0.0 0
M  V30 43 C 0.5118 4.7707 0.0 0
M  V30 44 C -9.4304 4.0969 0.0 0
M  V30 45 C -9.9737 6.653 0.0 0
M  V30 46 C -8.8871 1.5409 0.0 0
M  V30 47 C -6.4018 0.7334 0.0 0
M  V30 48 C -1.5071 7.0131 0.0 0
M  V30 49 N 0.978 6.2056 0.0 0
M  V30 50 C -10.9061 3.7833 0.0 0
M  V30 51 C -11.4494 6.3393 0.0 0
M  V30 52 C -7.8776 0.4197 0.0 0
M  V30 53 C -0.0314 7.3267 0.0 0
M  V30 54 C -11.9156 4.9044 0.0 0
M  V30 55 C 0.4347 8.7616 0.0 0
M  V30 END ATOM
M  V30 BEGIN BOND
M  V30 1 2 1 2
M  V30 2 2 1 3
M  V30 3 1 1 4
M  V30 4 1 1 5
M  V30 5 1 4 6
M  V30 6 1 5 7
M  V30 7 1 5 8
M  V30 8 2 6 9
M  V30 9 1 10 6 CFG=3
M  V30 10 1 10 11
M  V30 11 1 10 12
M  V30 12 1 10 13
M  V30 13 1 11 14
M  V30 14 1 12 15 CFG=1
M  V30 15 2 14 16
M  V30 16 1 14 17
M  V30 17 2 15 18
M  V30 18 1 17 19 CFG=3
M  V30 19 1 17 20
M  V30 20 1 18 21
M  V30 21 1 19 22
M  V30 22 1 19 23
M  V30 23 1 20 24
M  V30 24 1 21 25
M  V30 25 2 22 26
M  V30 26 1 22 27
M  V30 27 1 24 28 CFG=1
M  V30 28 1 25 29
M  V30 29 1 27 30 CFG=3
M  V30 30 1 27 31
M  V30 31 1 28 32
M  V30 32 1 29 33
M  V30 33 1 30 34
M  V30 34 2 32 35
M  V30 35 1 32 36
M  V30 36 2 34 37
M  V30 37 1 34 38
M  V30 38 1 35 39
M  V30 39 1 36 40
M  V30 40 2 36 41
M  V30 41 2 38 42
M  V30 42 1 38 43
M  V30 43 1 39 44
M  V30 44 2 39 45
M  V30 45 2 40 46
M  V30 46 1 41 47
M  V30 47 1 42 48
M  V30 48 2 43 49
M  V30 49 2 44 50
M  V30 50 1 45 51
M  V30 51 1 46 52
M  V30 52 2 48 53
M  V30 53 1 50 54
M  V30 54 1 53 55
M  V30 55 1 7 8
M  V30 56 1 12 13
M  V30 57 1 23 24
M  V30 58 1 31 33
M  V30 59 1 40 44
M  V30 60 2 47 52
M  V30 61 1 49 53
M  V30 62 2 51 54
M  V30 END BOND
M  V30 BEGIN COLLECTION
M  V30 MDLV30/STERAC1 ATOMS=(5 10 12 17 24 27)
M  V30 END COLLECTION
M  V30 END CTAB
M  END
>  <Drug Name>
Paritaprevir

>  <Carbon Count>
40

>  <SMILES String>
O=C(NS(=O)(C1CC1)=O)[C@](C2)(NC([C@]3([H])C[C@H](CN3C4=O)OC5=C6C=CC=CC6=C7C=CC=CC7=N5)=O)[C@@]2(/C=C\CCCCC[C@@H]4NC(C8=NC=C(N=C8)C)=O)[H]

$$$$
Vindesine
Actelion Java MolfileCreator 2.0

  0  0  0  0  0  0              0 V3000
M  V30 BEGIN CTAB
M  V30 COUNTS 55 63 0 0 0
M  V30 BEGIN ATOM
M  V30 1 O 0.6491 -2.8552 0.0 0
M  V30 2 C 0.8796 -1.8403 0.0 0
M  V30 3 O -0.0104 -1.1472 0.0 0
M  V30 4 C 1.732 -1.5 0.0 0 CFG=1
M  V30 5 C -0.9051 -1.534 0.0 0
M  V30 6 C 0.9128 -0.9264 0.0 0
M  V30 7 C 1.4732 -2.4659 0.0 0
M  V30 8 C 2.5512 -0.9264 0.0 0
M  V30 9 C 1.0426 0.1512 0.0 0
M  V30 10 C -0.0314 -1.4364 0.0 0
M  V30 11 N 1.6981 -3.4402 0.0 0
M  V30 12 C 0.3665 -2.3536 0.0 0
M  V30 13 C 1.996 -0.0563 0.0 0 CFG=2
M  V30 14 O 1.853 0.5035 0.0 0
M  V30 15 C 0.1275 0.6544 0.0 0
M  V30 16 C -0.8125 -0.7754 0.0 0
M  V30 17 C 0.841 -3.9553 0.0 0
M  V30 18 C 0.0863 -3.2992 0.0 0
M  V30 19 C 0.4583 -1.3816 0.0 0
M  V30 20 C 1.2068 -0.3949 0.0 0
M  V30 21 C 2.1469 1.0349 0.0 0
M  V30 22 C 2.7255 -0.0811 0.0 0
M  V30 23 C -0.7254 0.2207 0.0 0
M  V30 24 C -1.7869 -1.0004 0.0 0 CFG=1
M  V30 25 C 0.6502 -4.9369 0.0 0
M  V30 26 C -0.8592 -3.6248 0.0 0
M  V30 27 C -0.2942 -0.6483 0.0 0
M  V30 28 N 0.2705 0.0945 0.0 0
M  V30 29 C 1.3277 1.6085 0.0 0 CFG=1
M  V30 30 N -1.6459 0.6114 0.0 0
M  V30 31 C -2.3019 -0.1432 0.0 0 CFG=1
M  V30 32 C -2.7613 -1.2253 0.0 0 CFG=1
M  V30 33 C -1.2759 -1.8612 0.0 0
M  V30 34 C -0.2953 -5.2625 0.0 0
M  V30 35 C -1.05 -4.6064 0.0 0
M  V30 36 C 0.4214 1.1859 0.0 0
M  V30 37 O 0.5086 2.1821 0.0 0
M  V30 38 C 1.4149 2.6047 0.0 0
M  V30 39 C -1.8605 1.5706 0.0 0
M  V30 40 C -3.0189 0.4633 0.0 0 CFG=1
M  V30 41 N -2.8484 -2.2215 0.0 0
M  V30 42 C -3.6957 -1.131 0.0 0 CFG=2
M  V30 43 C -1.9279 -2.6122 0.0 0
M  V30 44 C 2.3212 3.0273 0.0 0
M  V30 45 O -3.9074 0.9221 0.0 0
M  V30 46 C -2.9907 1.4629 0.0 0
M  V30 47 C -3.8175 -0.1384 0.0 0 CFG=1
M  V30 48 C -3.4777 -2.9294 0.0 0
M  V30 49 C -4.554 -1.5723 0.0 0
M  V30 50 C -4.5795 -0.6631 0.0 0
M  V30 51 O -3.8423 1.9871 0.0 0
M  V30 52 N -2.1316 1.9687 0.0 0
M  V30 53 O -4.738 0.2522 0.0 0
M  V30 54 C -4.4076 -2.5616 0.0 0
M  V30 55 C -5.4265 -1.1946 0.0 0
M  V30 END ATOM
M  V30 BEGIN BOND
M  V30 1 2 1 2
M  V30 2 1 2 3
M  V30 3 1 4 2 CFG=3
M  V30 4 1 3 5
M  V30 5 1 4 6
M  V30 6 1 4 7
M  V30 7 1 4 8
M  V30 8 2 6 9
M  V30 9 1 6 10
M  V30 10 1 7 11
M  V30 11 2 7 12
M  V30 12 1 13 8 CFG=3
M  V30 13 1 9 14
M  V30 14 1 9 15
M  V30 15 2 10 16
M  V30 16 1 11 17
M  V30 17 1 12 18
M  V30 18 1 12 19
M  V30 19 1 13 20
M  V30 20 1 13 21
M  V30 21 1 14 22
M  V30 22 2 15 23
M  V30 23 1 16 24
M  V30 24 1 17 25
M  V30 25 1 18 26
M  V30 26 1 19 27
M  V30 27 1 20 28
M  V30 28 1 21 29
M  V30 29 1 23 30
M  V30 30 1 24 31
M  V30 31 1 24 32 CFG=3
M  V30 32 1 24 33
M  V30 33 2 25 34
M  V30 34 2 26 35
M  V30 35 1 28 36
M  V30 36 1 29 37 CFG=1
M  V30 37 1 29 38
M  V30 38 1 30 39
M  V30 39 1 31 40
M  V30 40 1 32 41 CFG=1
M  V30 41 1 32 42
M  V30 42 1 33 43
M  V30 43 1 38 44
M  V30 44 1 40 45 CFG=1
M  V30 45 1 40 46
M  V30 46 1 40 47
M  V30 47 1 41 48
M  V30 48 1 42 49
M  V30 49 1 42 50 CFG=3
M  V30 50 2 46 51
M  V30 51 1 46 52
M  V30 52 1 47 53 CFG=1
M  V30 53 1 48 54
M  V30 54 1 50 55
M  V30 55 1 16 23
M  V30 56 2 17 18
M  V30 57 1 27 28
M  V30 58 1 29 36
M  V30 59 1 31 30 CFG=3
M  V30 60 1 34 35
M  V30 61 1 41 43
M  V30 62 1 42 47
M  V30 63 2 49 54
M  V30 END BOND
M  V30 BEGIN COLLECTION
M  V30 MDLV30/STEABS ATOMS=(9 4 13 24 29 31 32 40 42 47)
M  V30 END COLLECTION
M  V30 END CTAB
M  END
>  <Drug Name>
Vindesine

>  <Carbon Count>
43

>  <SMILES String>
COC([C@@]1(C2=C(OC)C=C(N(C)[C@@H]3[C@@]45[C@@H](N6CC5)[C@](C=CC6)(CC)[C@@H](O)[C@]3(O)C(N)=O)C4=C2)C7=C(CC[N@@](C8)C[C@@](CC)(O)C[C@@H]8C1)C9=C(C=CC=C9)N7)=O

$$$$
Vinorelbine
Actelion Java MolfileCreator 2.0

  0  0  0  0  0  0              0 V3000
M  V30 BEGIN CTAB
M  V30 COUNTS 57 65 0 0 0
M  V30 BEGIN ATOM
M  V30 1 O 9.6343 7.8806 0.0 0
M  V30 2 C 9.4177 6.3869 0.0 0
M  V30 3 O 7.962 5.5607 0.0 0
M  V30 4 C 10.603 5.4525 0.0 0 CFG=2
M  V30 5 C 7.7994 4.334 0.0 0
M  V30 6 C 9.1676 4.9861 0.0 0
M  V30 7 C 11.5832 4.3049 0.0 0
M  V30 8 C 10.7214 6.9571 0.0 0
M  V30 9 C 8.0092 6.1632 0.0 0
M  V30 10 C 8.8538 3.5099 0.0 0
M  V30 11 N 11.0056 2.9105 0.0 0
M  V30 12 C 13.0878 4.1865 0.0 0
M  V30 13 C 11.9737 7.9503 0.0 0 CFG=1
M  V30 14 O 8.3598 7.4723 0.0 0
M  V30 15 C 6.6106 5.5296 0.0 0
M  V30 16 C 7.4184 3.0435 0.0 0
M  V30 17 C 12.1533 1.9303 0.0 0
M  V30 18 C 13.4401 2.7189 0.0 0
M  V30 19 C 14.2355 5.1666 0.0 0
M  V30 20 C 12.6589 9.295 0.0 0
M  V30 21 C 12.7957 6.6845 0.0 0
M  V30 22 C 7.2382 8.4822 0.0 0
M  V30 23 C 6.2968 4.0534 0.0 0
M  V30 24 C 6.8045 1.6647 0.0 0 CFG=2
M  V30 25 C 12.1928 0.4216 0.0 0
M  V30 26 C 14.7665 1.9987 0.0 0
M  V30 27 N 14.3029 6.7635 0.0 0
M  V30 28 C 14.1661 9.374 0.0 0
M  V30 29 N 4.9897 3.2987 0.0 0
M  V30 30 C 5.3035 1.8224 0.0 0 CFG=2
M  V30 31 C 6.1907 0.2859 0.0 0 CFG=2
M  V30 32 C 8.3055 1.5069 0.0 0
M  V30 33 C 13.5192 -0.2985 0.0 0
M  V30 34 C 14.806 0.49 0.0 0
M  V30 35 C 14.9881 8.1083 0.0 0
M  V30 36 C 14.8512 10.7188 0.0 0
M  V30 37 C 3.6664 3.9099 0.0 0
M  V30 38 C 3.9211 1.5092 0.0 0 CFG=2
M  V30 39 N 7.3123 -0.7239 0.0 0
M  V30 40 C 5.2282 -0.7546 0.0 0 CFG=1
M  V30 41 C 8.6193 0.0306 0.0 0
M  V30 42 C 14.0292 11.9846 0.0 0
M  V30 43 O 4.2254 2.9081 0.0 0
M  V30 44 C 2.7419 2.4512 0.0 0
M  V30 45 C 3.9211 0.0 0.0 0 CFG=2
M  V30 46 C 7.5939 -2.1254 0.0 0
M  V30 47 C 4.9806 -2.1901 0.0 0
M  V30 48 C 3.8615 -1.395 0.0 0
M  V30 49 O 1.3433 1.9911 0.0 0
M  V30 50 O 2.9403 3.9447 0.0 0
M  V30 51 O 2.6141 -0.7546 0.0 0
M  V30 52 C 6.3059 -2.9122 0.0 0
M  V30 53 C 3.7328 -2.8987 0.0 0
M  V30 54 C 1.7888 4.8853 0.0 0
M  V30 55 C 1.307 0.0 0.0 0
M  V30 56 O 1.2934 1.3288 0.0 0
M  V30 57 C 0.0 -0.7546 0.0 0
M  V30 END ATOM
M  V30 BEGIN BOND
M  V30 1 2 1 2
M  V30 2 1 2 3
M  V30 3 1 4 2 CFG=1
M  V30 4 1 3 5
M  V30 5 1 4 6
M  V30 6 1 4 7
M  V30 7 1 4 8
M  V30 8 2 6 9
M  V30 9 1 6 10
M  V30 10 1 7 11
M  V30 11 2 7 12
M  V30 12 1 13 8 CFG=1
M  V30 13 1 9 14
M  V30 14 1 9 15
M  V30 15 2 10 16
M  V30 16 1 11 17
M  V30 17 1 12 18
M  V30 18 1 12 19
M  V30 19 1 13 20
M  V30 20 1 13 21
M  V30 21 1 14 22
M  V30 22 2 15 23
M  V30 23 1 24 16 CFG=1
M  V30 24 1 17 25
M  V30 25 1 18 26
M  V30 26 1 19 27
M  V30 27 2 20 28
M  V30 28 1 23 29
M  V30 29 1 24 30
M  V30 30 1 24 31
M  V30 31 1 24 32
M  V30 32 2 25 33
M  V30 33 2 26 34
M  V30 34 1 27 35
M  V30 35 1 28 36
M  V30 36 1 29 37
M  V30 37 1 30 38
M  V30 38 1 31 39 CFG=3
M  V30 39 1 31 40
M  V30 40 1 32 41
M  V30 41 1 36 42
M  V30 42 1 38 43 CFG=3
M  V30 43 1 38 44
M  V30 44 1 38 45
M  V30 45 1 39 46
M  V30 46 1 40 47
M  V30 47 1 40 48 CFG=1
M  V30 48 2 44 49
M  V30 49 1 44 50
M  V30 50 1 45 51 CFG=3
M  V30 51 1 46 52
M  V30 52 1 48 53
M  V30 53 1 50 54
M  V30 54 1 51 55
M  V30 55 2 55 56
M  V30 56 1 55 57
M  V30 57 1 16 23
M  V30 58 2 17 18
M  V30 59 1 21 27
M  V30 60 1 28 35
M  V30 61 1 30 29 CFG=1
M  V30 62 1 33 34
M  V30 63 1 39 41
M  V30 64 1 40 45
M  V30 65 2 47 52
M  V30 END BOND
M  V30 BEGIN COLLECTION
M  V30 MDLV30/STERAC1 ATOMS=(8 4 13 24 30 31 38 40 45)
M  V30 END COLLECTION
M  V30 END CTAB
M  END
>  <Drug Name>
Vinorelbine

>  <Carbon Count>
45

>  <SMILES String>
O=C(OC)[C@@](C[C@@H]1C=C(CC)CN2C1)(C3=CC4=C(N(C)[C@@H]5[C@@]46[C@@H](N7CC6)[C@](C=CC7)(CC)[C@@H](OC(C)=O)[C@@]5(C(OC)=O)O)C=C3OC)C8=C(C2)C9=C(N8)C=CC=C9

$$$$
Docetaxel
Actelion Java MolfileCreator 2.0

  0  0  0  0  0  0              0 V3000
M  V30 BEGIN CTAB
M  V30 COUNTS 58 63 0 0 0
M  V30 BEGIN ATOM
M  V30 1 O 9.6581 -3.9594 0.0 0
M  V30 2 C 9.3993 -2.9935 0.0 0
M  V30 3 C 10.1927 -2.3847 0.0 0 CFG=1
M  V30 4 C 8.4079 -2.863 0.0 0 CFG=2
M  V30 5 C 10.3232 -1.3933 0.0 0 CFG=1
M  V30 6 C 10.986 -2.9935 0.0 0 CFG=1
M  V30 7 C 10.1927 -3.3847 0.0 0
M  V30 8 O 7.8922 -3.7198 0.0 0
M  V30 9 C 7.7942 -2.0 0.0 0
M  V30 10 C 11.2471 -1.0106 0.0 0 CFG=1
M  V30 11 C 9.7144 -0.5999 0.0 0 CFG=2
M  V30 12 O 10.8555 -3.9849 0.0 0
M  V30 13 C 11.9099 -2.6108 0.0 0
M  V30 14 C 6.9282 -1.5 0.0 0
M  V30 15 C 8.6602 -1.5 0.0 0
M  V30 16 O 10.6383 -0.2172 0.0 0
M  V30 17 C 12.0404 -1.6194 0.0 0 CFG=1
M  V30 18 C 11.8558 -0.2172 0.0 0
M  V30 19 O 10.1986 0.2749 0.0 0
M  V30 20 C 8.6602 -0.4999 0.0 0 CFG=2
M  V30 21 C 6.9282 -0.5 0.0 0 CFG=2
M  V30 22 C 6.0621 -1.9999 0.0 0
M  V30 23 C 9.1602 -2.366 0.0 0
M  V30 24 C 9.6602 -1.4999 0.0 0
M  V30 25 C 11.021 0.7065 0.0 0
M  V30 26 O 12.6492 -0.826 0.0 0
M  V30 27 C 9.683 1.1317 0.0 0
M  V30 28 O 8.9644 0.4526 0.0 0
M  V30 29 C 7.7942 0.0 0.0 0
M  V30 30 O 6.0621 0.0 0.0 0
M  V30 31 O 12.0125 0.8371 0.0 0
M  V30 32 C 10.4298 1.4902 0.0 0
M  V30 33 O 8.6831 1.1136 0.0 0
M  V30 34 C 10.1671 2.0067 0.0 0
M  V30 35 C 5.1961 -0.5 0.0 0
M  V30 36 C 9.6515 2.8635 0.0 0
M  V30 37 C 11.167 2.0249 0.0 0
M  V30 38 O 5.1961 -1.4999 0.0 0
M  V30 39 C 4.3301 0.0 0.0 0 CFG=2
M  V30 40 C 10.1357 3.7385 0.0 0
M  V30 41 C 11.6512 2.8999 0.0 0
M  V30 42 O 4.3301 1.0 0.0 0
M  V30 43 C 3.4641 -0.5 0.0 0 CFG=1
M  V30 44 C 11.1355 3.7566 0.0 0
M  V30 45 N 2.598 0.0 0.0 0
M  V30 46 C 3.4641 -1.5 0.0 0
M  V30 47 C 1.732 -0.5 0.0 0
M  V30 48 C 2.598 -1.9999 0.0 0
M  V30 49 C 4.3301 -2.0 0.0 0
M  V30 50 O 1.732 -1.5 0.0 0
M  V30 51 O 0.866 0.0 0.0 0
M  V30 52 C 2.598 -2.9999 0.0 0
M  V30 53 C 4.3301 -3.0 0.0 0
M  V30 54 C 0.0 -0.5 0.0 0
M  V30 55 C 3.4641 -3.5 0.0 0
M  V30 56 C 0.4999 -1.366 0.0 0
M  V30 57 C -0.866 -0.9999 0.0 0
M  V30 58 C -0.4999 0.366 0.0 0
M  V30 END ATOM
M  V30 BEGIN BOND
M  V30 1 2 1 2
M  V30 2 1 2 3
M  V30 3 1 2 4
M  V30 4 1 3 5
M  V30 5 1 3 6
M  V30 6 1 3 7 CFG=3
M  V30 7 1 4 8 CFG=3
M  V30 8 1 4 9
M  V30 9 1 5 10
M  V30 10 1 5 11 CFG=3
M  V30 11 1 6 12 CFG=3
M  V30 12 1 6 13
M  V30 13 2 9 14
M  V30 14 1 9 15
M  V30 15 1 10 16 CFG=1
M  V30 16 1 10 17
M  V30 17 1 10 18
M  V30 18 1 11 19 CFG=1
M  V30 19 1 11 20
M  V30 20 1 14 21
M  V30 21 1 14 22
M  V30 22 1 15 23
M  V30 23 1 15 24
M  V30 24 1 16 25
M  V30 25 1 17 26 CFG=3
M  V30 26 1 19 27
M  V30 27 1 20 28 CFG=3
M  V30 28 1 20 29
M  V30 29 1 21 30 CFG=1
M  V30 30 2 25 31
M  V30 31 1 25 32
M  V30 32 2 27 33
M  V30 33 1 27 34
M  V30 34 1 30 35
M  V30 35 2 34 36
M  V30 36 1 34 37
M  V30 37 2 35 38
M  V30 38 1 35 39
M  V30 39 1 36 40
M  V30 40 2 37 41
M  V30 41 1 39 42 CFG=1
M  V30 42 1 39 43
M  V30 43 2 40 44
M  V30 44 1 43 45 CFG=3
M  V30 45 1 43 46
M  V30 46 1 45 47
M  V30 47 2 46 48
M  V30 48 1 46 49
M  V30 49 2 47 50
M  V30 50 1 47 51
M  V30 51 1 48 52
M  V30 52 2 49 53
M  V30 53 1 51 54
M  V30 54 2 52 55
M  V30 55 1 54 56
M  V30 56 1 54 57
M  V30 57 1 54 58
M  V30 58 1 13 17
M  V30 59 1 15 20
M  V30 60 1 18 26
M  V30 61 1 21 29
M  V30 62 1 41 44
M  V30 63 1 53 55
M  V30 END BOND
M  V30 BEGIN COLLECTION
M  V30 MDLV30/STEABS ATOMS=(11 3 4 5 6 10 11 17 20 21 39 43)
M  V30 END COLLECTION
M  V30 END CTAB
M  END
>  <Drug Name>
Docetaxel

>  <Carbon Count>
43

>  <SMILES String>
CC1=C([C@@H](O)C([C@@]2(C)[C@]([C@@](CO3)(OC(C)=O)[C@@]3([H])C[C@@H]2O)([H])[C@@H]4OC(C5=CC=CC=C5)=O)=O)C(C)(C)[C@@]4(O)C[C@@H]1OC([C@H](O)[C@H](C6=CC=CC=C6)NC(OC(C)(C)C)=O)=O

$$$$
Glecaprevir
Actelion Java MolfileCreator 2.0

  0  0  0  0  0  0              0 V3000
M  V30 BEGIN CTAB
M  V30 COUNTS 58 64 0 0 0
M  V30 BEGIN ATOM
M  V30 1 S 2.539 3.4482 0.0 0
M  V30 2 O 3.039 4.3142 0.0 0
M  V30 3 O 2.039 4.3142 0.0 0
M  V30 4 N 3.405 2.9482 0.0 0
M  V30 5 C 1.673 2.9482 0.0 0
M  V30 6 C 3.405 1.9482 0.0 0
M  V30 7 C 0.673 2.9482 0.0 0
M  V30 8 C 1.173 2.0822 0.0 0
M  V30 9 C 2.3801 2.2411 0.0 0
M  V30 10 O 2.539 1.4482 0.0 0
M  V30 11 C 4.2711 1.4482 0.0 0 CFG=1
M  V30 12 N 3.564 0.7411 0.0 0
M  V30 13 C 5.237 1.7071 0.0 0 CFG=2
M  V30 14 C 4.5299 2.4142 0.0 0
M  V30 15 C 3.8228 -0.2247 0.0 0
M  V30 16 C 6.2029 1.4482 0.0 0
M  V30 17 O 4.7887 -0.4835 0.0 0
M  V30 18 C 3.1157 -0.9318 0.0 0 CFG=2
M  V30 19 F 6.4617 0.4823 0.0 0
M  V30 20 F 6.91 2.1553 0.0 0
M  V30 21 N 2.128 -0.7754 0.0 0
M  V30 22 C 3.2721 -1.9195 0.0 0
M  V30 23 C 1.4608 0.0534 0.0 0
M  V30 24 C 1.674 -1.6664 0.0 0
M  V30 25 C 2.3811 -2.3735 0.0 0 CFG=1
M  V30 26 O 1.8206 0.9865 0.0 0
M  V30 27 C 0.4731 -0.1029 0.0 0 CFG=2
M  V30 28 O 2.0027 -3.3679 0.0 0
M  V30 29 N 0.1148 -1.0365 0.0 0
M  V30 30 C -0.1561 0.6741 0.0 0
M  V30 31 C 2.6321 -4.1451 0.0 0
M  V30 32 C -0.8728 -1.1929 0.0 0
M  V30 33 C -0.9332 0.0448 0.0 0
M  V30 34 C -0.7854 1.4513 0.0 0
M  V30 35 C 0.621 1.3034 0.0 0
M  V30 36 N 3.6197 -3.9887 0.0 0
M  V30 37 C 2.2737 -5.0787 0.0 0
M  V30 38 O -1.5021 -0.4158 0.0 0
M  V30 39 O -1.2312 -2.1265 0.0 0
M  V30 40 C 4.2491 -4.7658 0.0 0
M  V30 41 N 2.903 -5.8558 0.0 0
M  V30 42 C 1.286 -5.2351 0.0 0
M  V30 43 C -2.2189 -2.283 0.0 0 CFG=2
M  V30 44 C 3.8907 -5.6994 0.0 0
M  V30 45 C 5.2368 -4.6094 0.0 0
M  V30 46 F 0.5089 -5.8644 0.0 0
M  V30 47 F 1.4424 -6.2228 0.0 0
M  V30 48 C 0.6567 -4.458 0.0 0
M  V30 49 C -2.5772 -3.2165 0.0 0 CFG=1
M  V30 50 C -2.996 -1.6536 0.0 0
M  V30 51 C 4.52 -6.4765 0.0 0
M  V30 52 C 5.8661 -5.3865 0.0 0
M  V30 53 C -0.3309 -4.6144 0.0 0
M  V30 54 O -1.9479 -3.9937 0.0 0
M  V30 55 C -3.5759 -3.1642 0.0 0
M  V30 56 C -3.8347 -2.1983 0.0 0
M  V30 57 C 5.5077 -6.3201 0.0 0
M  V30 58 C -0.9602 -3.8372 0.0 0
M  V30 END ATOM
M  V30 BEGIN BOND
M  V30 1 2 1 2
M  V30 2 2 1 3
M  V30 3 1 1 4
M  V30 4 1 1 5
M  V30 5 1 4 6
M  V30 6 1 5 7
M  V30 7 1 5 8
M  V30 8 1 5 9
M  V30 9 2 6 10
M  V30 10 1 6 11
M  V30 11 1 11 12 CFG=1
M  V30 12 1 11 13
M  V30 13 1 11 14
M  V30 14 1 12 15
M  V30 15 1 13 16 CFG=3
M  V30 16 2 15 17
M  V30 17 1 18 15 CFG=1
M  V30 18 1 16 19
M  V30 19 1 16 20
M  V30 20 1 18 21
M  V30 21 1 18 22
M  V30 22 1 21 23
M  V30 23 1 21 24
M  V30 24 1 22 25
M  V30 25 2 23 26
M  V30 26 1 23 27
M  V30 27 1 25 28 CFG=3
M  V30 28 1 27 29
M  V30 29 1 27 30 CFG=3
M  V30 30 1 28 31
M  V30 31 1 29 32
M  V30 32 1 30 33
M  V30 33 1 30 34
M  V30 34 1 30 35
M  V30 35 2 31 36
M  V30 36 1 31 37
M  V30 37 2 32 38
M  V30 38 1 32 39
M  V30 39 1 36 40
M  V30 40 2 37 41
M  V30 41 1 37 42
M  V30 42 1 43 39 CFG=3
M  V30 43 1 40 44
M  V30 44 2 40 45
M  V30 45 1 42 46
M  V30 46 1 42 47
M  V30 47 1 42 48
M  V30 48 1 43 49
M  V30 49 1 43 50
M  V30 50 2 44 51
M  V30 51 1 45 52
M  V30 52 2 48 53
M  V30 53 1 49 54 CFG=1
M  V30 54 1 49 55
M  V30 55 1 50 56
M  V30 56 1 51 57
M  V30 57 1 53 58
M  V30 58 1 7 8
M  V30 59 1 13 14
M  V30 60 1 24 25
M  V30 61 1 41 44
M  V30 62 2 52 57
M  V30 63 1 54 58
M  V30 64 1 55 56
M  V30 END BOND
M  V30 BEGIN COLLECTION
M  V30 MDLV30/STERAC1 ATOMS=(7 11 13 18 25 27 43 49)
M  V30 END COLLECTION
M  V30 END CTAB
M  END
>  <Drug Name>
Glecaprevir

>  <Carbon Count>
38

>  <SMILES String>
CC1(CC1)S(=O)(=O)NC(=O)[C@]2(C[C@H]2C(F)F)NC(=O)[C@@H]3C[C@@H]4CN3C(=O)[C@@H](NC(=O)O[C@@H]5CCC[C@H]5OC/C=C/C(C6=NC7=CC=CC=C7N=C6O4)(F)F)C(C)(C)C

$$$$
Rifampin
Actelion Java MolfileCreator 2.0

  0  0  0  0  0  0              0 V3000
M  V30 BEGIN CTAB
M  V30 COUNTS 59 63 0 0 0
M  V30 BEGIN ATOM
M  V30 1 O 2.9008 -3.3261 0.0 0
M  V30 2 C 2.3763 -2.4747 0.0 0
M  V30 3 N 3.152 -1.8435 0.0 0
M  V30 4 C 1.4637 -2.8836 0.0 0
M  V30 5 C 3.4641 -0.5 0.0 0
M  V30 6 C 0.4764 -3.0423 0.0 0
M  V30 7 C 1.75 -3.8417 0.0 0
M  V30 8 C 4.3301 0.0 0.0 0
M  V30 9 C 2.598 0.0 0.0 0
M  V30 10 C -0.5183 -2.9401 0.0 0
M  V30 11 O 5.1704 -0.5421 0.0 0
M  V30 12 C 4.4618 1.3298 0.0 0
M  V30 13 C 2.598 0.9999 0.0 0
M  V30 14 C 1.732 -0.5 0.0 0
M  V30 15 C -1.3287 -2.3543 0.0 0
M  V30 16 C 5.2321 1.9675 0.0 0
M  V30 17 C 3.5244 1.678 0.0 0
M  V30 18 O 1.7062 1.4524 0.0 0
M  V30 19 N 0.866 0.0 0.0 0
M  V30 20 C -2.1917 -2.1337 0.0 0 CFG=2
M  V30 21 O 6.1695 1.6193 0.0 0
M  V30 22 C 5.0649 2.9534 0.0 0
M  V30 23 C 3.3572 2.664 0.0 0
M  V30 24 N 0.0 -0.4999 0.0 0
M  V30 25 C -2.8942 -1.2224 0.0 0 CFG=1
M  V30 26 C -2.849 -2.8085 0.0 0
M  V30 27 C 4.1275 3.3017 0.0 0
M  V30 28 C 5.8352 3.5911 0.0 0
M  V30 29 C 2.5127 3.1995 0.0 0
M  V30 30 C -0.866 0.0 0.0 0
M  V30 31 C 0.0 -1.4999 0.0 0
M  V30 32 O -3.7457 -1.7469 0.0 0
M  V30 33 C -3.3031 -0.3099 0.0 0 CFG=1
M  V30 34 O 3.7591 4.2313 0.0 0
M  V30 35 O 1.5831 2.831 0.0 0
M  V30 36 C 2.7611 4.1682 0.0 0 CFG=1
M  V30 37 C -1.732 -0.4999 0.0 0
M  V30 38 C -0.866 -1.9999 0.0 0
M  V30 39 C -3.4619 0.6774 0.0 0 CFG=2
M  V30 40 C -4.2613 -0.5961 0.0 0
M  V30 41 O 1.2526 4.5136 0.0 0
M  V30 42 C 2.8419 5.1649 0.0 0
M  V30 43 N -1.732 -1.4999 0.0 0
M  V30 44 O -4.4615 0.6488 0.0 0
M  V30 45 C -3.3597 1.6721 0.0 0 CFG=1
M  V30 46 C 0.2653 4.3548 0.0 0
M  V30 47 C -2.6875 -2.0028 0.0 0
M  V30 48 C -3.0035 2.6065 0.0 0 CFG=1
M  V30 49 C -4.3326 1.9033 0.0 0
M  V30 50 C -0.7294 4.457 0.0 0
M  V30 51 O -3.8835 3.0816 0.0 0
M  V30 52 C -2.4177 3.4169 0.0 0 CFG=2
M  V30 53 C -1.642 4.0481 0.0 0 CFG=2
M  V30 54 C -3.912 4.0812 0.0 0
M  V30 55 C -3.1141 4.054 0.0 0
M  V30 56 O -2.1665 4.8995 0.0 0
M  V30 57 O -3.0606 4.6057 0.0 0
M  V30 58 C -4.7919 4.5563 0.0 0
M  V30 59 C -1.6914 5.7794 0.0 0
M  V30 END ATOM
M  V30 BEGIN BOND
M  V30 1 2 1 2
M  V30 2 1 2 3
M  V30 3 1 2 4
M  V30 4 1 3 5
M  V30 5 2 4 6
M  V30 6 1 4 7
M  V30 7 2 5 8
M  V30 8 1 5 9
M  V30 9 1 6 10
M  V30 10 1 8 11
M  V30 11 1 8 12
M  V30 12 2 9 13
M  V30 13 1 9 14
M  V30 14 2 10 15
M  V30 15 2 12 16
M  V30 16 1 12 17
M  V30 17 1 13 18
M  V30 18 2 14 19
M  V30 19 1 15 20
M  V30 20 1 16 21
M  V30 21 1 16 22
M  V30 22 2 17 23
M  V30 23 1 19 24
M  V30 24 1 20 25
M  V30 25 1 20 26 CFG=1
M  V30 26 2 22 27
M  V30 27 1 22 28
M  V30 28 1 23 29
M  V30 29 1 24 30
M  V30 30 1 24 31
M  V30 31 1 25 32 CFG=1
M  V30 32 1 25 33
M  V30 33 1 27 34
M  V30 34 2 29 35
M  V30 35 1 29 36
M  V30 36 1 30 37
M  V30 37 1 31 38
M  V30 38 1 33 39
M  V30 39 1 33 40 CFG=3
M  V30 40 1 36 41
M  V30 41 1 36 42 CFG=1
M  V30 42 1 37 43
M  V30 43 1 39 44 CFG=3
M  V30 44 1 39 45
M  V30 45 1 41 46
M  V30 46 1 43 47
M  V30 47 1 45 48
M  V30 48 1 45 49 CFG=3
M  V30 49 2 46 50
M  V30 50 1 48 51 CFG=1
M  V30 51 1 48 52
M  V30 52 1 50 53
M  V30 53 1 51 54
M  V30 54 1 52 55 CFG=1
M  V30 55 1 53 56 CFG=3
M  V30 56 2 54 57
M  V30 57 1 54 58
M  V30 58 1 56 59
M  V30 59 1 13 17
M  V30 60 1 23 27
M  V30 61 1 34 36
M  V30 62 1 38 43
M  V30 63 1 52 53
M  V30 END BOND
M  V30 BEGIN COLLECTION
M  V30 MDLV30/STERAC1 ATOMS=(9 20 25 33 36 39 45 48 52 53)
M  V30 END COLLECTION
M  V30 END CTAB
M  END
>  <Drug Name>
Rifampin

>  <Carbon Count>
43

>  <SMILES String>
CN1CCN(CC1)/N=C/c2c(O)c3c5C(=O)[C@@]4(C)O/C=C/[C@H](OC)[C@@H](C)[C@@H](OC(C)=O)[C@H](C)[C@H](O)[C@H](C)[C@@H](O)[C@@H](C)\C=C\C=C(\C)C(=O)Nc2c(O)c3c(O)c(C)c5O4

$$$$
Vinblastine
Actelion Java MolfileCreator 2.0

  0  0  0  0  0  0              0 V3000
M  V30 BEGIN CTAB
M  V30 COUNTS 59 67 0 0 0
M  V30 BEGIN ATOM
M  V30 1 O 5.2793 3.7026 0.0 0
M  V30 2 C 6.315 4.2006 0.0 0
M  V30 3 O 6.3518 5.2257 0.0 0
M  V30 4 C 7.0252 3.6127 0.0 0 CFG=1
M  V30 5 C 7.269 5.5978 0.0 0
M  V30 6 C 6.0742 3.3037 0.0 0
M  V30 7 C 7.6409 2.8247 0.0 0
M  V30 8 C 7.0601 4.6121 0.0 0
M  V30 9 C 5.2861 4.0771 0.0 0
M  V30 10 C 5.8641 2.2576 0.0 0
M  V30 11 N 8.5545 2.4179 0.0 0
M  V30 12 C 6.9718 2.0815 0.0 0
M  V30 13 C 5.915 4.8033 0.0 0 CFG=1
M  V30 14 O 5.498 4.9151 0.0 0
M  V30 15 C 4.339 3.6279 0.0 0
M  V30 16 C 4.9152 2.0165 0.0 0
M  V30 17 C 8.4499 1.4234 0.0 0
M  V30 18 C 7.4718 1.2155 0.0 0
M  V30 19 C 6.2182 2.6169 0.0 0
M  V30 20 C 5.8381 3.8091 0.0 0
M  V30 21 C 5.3575 5.5718 0.0 0
M  V30 22 C 4.7741 5.6732 0.0 0
M  V30 23 C 4.1721 2.6856 0.0 0
M  V30 24 C 4.5085 1.103 0.0 0 CFG=1
M  V30 25 C 9.1191 0.6803 0.0 0
M  V30 26 C 7.1628 0.2644 0.0 0
M  V30 27 C 5.1257 2.507 0.0 0
M  V30 28 N 4.8496 3.4576 0.0 0
M  V30 29 C 4.2994 5.1606 0.0 0 CFG=1
M  V30 30 N 3.3061 2.1856 0.0 0
M  V30 31 C 3.514 1.2075 0.0 0 CFG=1
M  V30 32 C 4.1018 0.1894 0.0 0 CFG=1
M  V30 33 C 5.503 0.9984 0.0 0
M  V30 34 C 8.81 -0.2707 0.0 0
M  V30 35 C 7.8319 -0.4786 0.0 0
M  V30 36 C 4.0915 4.1824 0.0 0
M  V30 37 O 3.3483 4.8516 0.0 0
M  V30 38 C 3.5562 5.8297 0.0 0
M  V30 39 C 2.4406 2.5157 0.0 0
M  V30 40 C 2.598 1.0 0.0 0 CFG=1
M  V30 41 N 4.8449 -0.4796 0.0 0
M  V30 42 C 3.4641 -0.4999 0.0 0 CFG=2
M  V30 43 C 5.7109 0.0203 0.0 0
M  V30 44 C 2.6052 5.5207 0.0 0
M  V30 45 O 2.7985 1.9138 0.0 0
M  V30 46 C 1.8167 1.6241 0.0 0
M  V30 47 C 2.598 0.0 0.0 0 CFG=1
M  V30 48 C 5.0315 -1.4082 0.0 0
M  V30 49 C 3.3 -1.4511 0.0 0
M  V30 50 C 2.5585 -0.9243 0.0 0
M  V30 51 O 0.89 1.3192 0.0 0
M  V30 52 O 1.9586 2.6144 0.0 0
M  V30 53 O 1.732 -0.5 0.0 0
M  V30 54 C 4.1781 -1.9295 0.0 0
M  V30 55 C 2.4732 -1.9206 0.0 0
M  V30 56 C 2.8977 2.9774 0.0 0
M  V30 57 C 0.866 0.0 0.0 0
M  V30 58 O 0.857 0.8804 0.0 0
M  V30 59 C 0.0 -0.4999 0.0 0
M  V30 END ATOM
M  V30 BEGIN BOND
M  V30 1 2 1 2
M  V30 2 1 2 3
M  V30 3 1 4 2 CFG=3
M  V30 4 1 3 5
M  V30 5 1 4 6
M  V30 6 1 4 7
M  V30 7 1 4 8
M  V30 8 2 6 9
M  V30 9 1 6 10
M  V30 10 1 7 11
M  V30 11 2 7 12
M  V30 12 1 13 8 CFG=1
M  V30 13 1 9 14
M  V30 14 1 9 15
M  V30 15 2 10 16
M  V30 16 1 11 17
M  V30 17 1 12 18
M  V30 18 1 12 19
M  V30 19 1 13 20
M  V30 20 1 13 21
M  V30 21 1 14 22
M  V30 22 2 15 23
M  V30 23 1 24 16 CFG=3
M  V30 24 1 17 25
M  V30 25 1 18 26
M  V30 26 1 19 27
M  V30 27 1 20 28
M  V30 28 1 21 29
M  V30 29 1 23 30
M  V30 30 1 24 31
M  V30 31 1 24 32
M  V30 32 1 24 33
M  V30 33 2 25 34
M  V30 34 2 26 35
M  V30 35 1 28 36
M  V30 36 1 29 37 CFG=1
M  V30 37 1 29 38
M  V30 38 1 30 39
M  V30 39 1 31 40
M  V30 40 1 32 41 CFG=1
M  V30 41 1 32 42
M  V30 42 1 33 43
M  V30 43 1 38 44
M  V30 44 1 40 45 CFG=1
M  V30 45 1 40 46
M  V30 46 1 40 47
M  V30 47 1 41 48
M  V30 48 1 42 49
M  V30 49 1 42 50 CFG=3
M  V30 50 2 46 51
M  V30 51 1 46 52
M  V30 52 1 47 53 CFG=1
M  V30 53 1 48 54
M  V30 54 1 50 55
M  V30 55 1 52 56
M  V30 56 1 53 57
M  V30 57 2 57 58
M  V30 58 1 57 59
M  V30 59 1 16 23
M  V30 60 2 17 18
M  V30 61 1 27 28
M  V30 62 1 29 36
M  V30 63 1 31 30 CFG=3
M  V30 64 1 34 35
M  V30 65 1 41 43
M  V30 66 1 42 47
M  V30 67 2 49 54
M  V30 END BOND
M  V30 BEGIN COLLECTION
M  V30 MDLV30/STEABS ATOMS=(9 4 13 24 29 31 32 40 42 47)
M  V30 END COLLECTION
M  V30 END CTAB
M  END
>  <Drug Name>
Vinblastine

>  <Carbon Count>
47

>  <SMILES String>
O[C@@]1(CC)C[C@@]2([H])C[C@@](C3=C(OC)C=C(N(C)[C@]4([H])[C@@]56[C@]7([H])[C@](C=CCN7CC6)(CC)[C@@H](OC(C)=O)[C@]4(O)C(OC)=O)C5=C3)(C(OC)=O)C8=C(C(C=CC=C9)=C9C8)CC[N@@](C2)C1

$$$$
Vincristine
Actelion Java MolfileCreator 2.0

  0  0  0  0  0  0              0 V3000
M  V30 BEGIN CTAB
M  V30 COUNTS 60 68 0 0 0
M  V30 BEGIN ATOM
M  V30 1 O 5.2793 3.7026 0.0 0
M  V30 2 C 6.315 4.2006 0.0 0
M  V30 3 O 6.3518 5.2257 0.0 0
M  V30 4 C 7.0252 3.6127 0.0 0 CFG=1
M  V30 5 C 7.269 5.5978 0.0 0
M  V30 6 C 6.0742 3.3037 0.0 0
M  V30 7 C 7.6409 2.8247 0.0 0
M  V30 8 C 7.0601 4.6121 0.0 0
M  V30 9 C 5.2861 4.0771 0.0 0
M  V30 10 C 5.8641 2.2576 0.0 0
M  V30 11 N 8.5545 2.4179 0.0 0
M  V30 12 C 6.9718 2.0815 0.0 0
M  V30 13 C 5.915 4.8033 0.0 0 CFG=2
M  V30 14 O 5.498 4.9151 0.0 0
M  V30 15 C 4.339 3.6279 0.0 0
M  V30 16 C 4.9152 2.0165 0.0 0
M  V30 17 C 8.4499 1.4234 0.0 0
M  V30 18 C 7.4718 1.2155 0.0 0
M  V30 19 C 6.2182 2.6169 0.0 0
M  V30 20 C 5.8381 3.8091 0.0 0
M  V30 21 C 5.3575 5.5718 0.0 0
M  V30 22 C 4.7741 5.6732 0.0 0
M  V30 23 C 4.1721 2.6856 0.0 0
M  V30 24 C 4.5085 1.103 0.0 0 CFG=1
M  V30 25 C 9.1191 0.6803 0.0 0
M  V30 26 C 7.1628 0.2644 0.0 0
M  V30 27 C 5.1257 2.507 0.0 0
M  V30 28 N 4.8496 3.4576 0.0 0
M  V30 29 C 4.2994 5.1606 0.0 0 CFG=1
M  V30 30 N 3.3061 2.1856 0.0 0
M  V30 31 C 3.514 1.2075 0.0 0 CFG=1
M  V30 32 C 4.1018 0.1894 0.0 0 CFG=1
M  V30 33 C 5.503 0.9984 0.0 0
M  V30 34 C 8.81 -0.2707 0.0 0
M  V30 35 C 7.8319 -0.4786 0.0 0
M  V30 36 C 4.0915 4.1824 0.0 0
M  V30 37 O 3.3483 4.8516 0.0 0
M  V30 38 C 3.5562 5.8297 0.0 0
M  V30 39 C 2.4295 2.5178 0.0 0
M  V30 40 C 2.598 1.0 0.0 0 CFG=1
M  V30 41 N 4.8449 -0.4796 0.0 0
M  V30 42 C 3.4641 -0.4999 0.0 0 CFG=2
M  V30 43 C 5.7109 0.0203 0.0 0
M  V30 44 C 2.6052 5.5207 0.0 0
M  V30 45 O 2.288 3.5869 0.0 0
M  V30 46 O 2.7993 1.9243 0.0 0
M  V30 47 C 1.8167 1.6241 0.0 0
M  V30 48 C 2.598 0.0 0.0 0 CFG=1
M  V30 49 C 5.0315 -1.4082 0.0 0
M  V30 50 C 3.3 -1.4511 0.0 0
M  V30 51 C 2.5585 -0.9243 0.0 0
M  V30 52 O 0.89 1.3192 0.0 0
M  V30 53 O 1.9298 2.6145 0.0 0
M  V30 54 O 1.732 -0.5 0.0 0
M  V30 55 C 4.1781 -1.9295 0.0 0
M  V30 56 C 2.4732 -1.9206 0.0 0
M  V30 57 C 2.8977 2.9774 0.0 0
M  V30 58 C 0.866 0.0 0.0 0
M  V30 59 O 0.857 0.8804 0.0 0
M  V30 60 C 0.0 -0.4999 0.0 0
M  V30 END ATOM
M  V30 BEGIN BOND
M  V30 1 2 1 2
M  V30 2 1 2 3
M  V30 3 1 4 2 CFG=3
M  V30 4 1 3 5
M  V30 5 1 4 6
M  V30 6 1 4 7
M  V30 7 1 4 8
M  V30 8 2 6 9
M  V30 9 1 6 10
M  V30 10 1 7 11
M  V30 11 2 7 12
M  V30 12 1 13 8 CFG=3
M  V30 13 1 9 14
M  V30 14 1 9 15
M  V30 15 2 10 16
M  V30 16 1 11 17
M  V30 17 1 12 18
M  V30 18 1 12 19
M  V30 19 1 13 20
M  V30 20 1 13 21
M  V30 21 1 14 22
M  V30 22 2 15 23
M  V30 23 1 24 16 CFG=3
M  V30 24 1 17 25
M  V30 25 1 18 26
M  V30 26 1 19 27
M  V30 27 1 20 28
M  V30 28 1 21 29
M  V30 29 1 23 30
M  V30 30 1 24 31
M  V30 31 1 24 32
M  V30 32 1 24 33
M  V30 33 2 25 34
M  V30 34 2 26 35
M  V30 35 1 28 36
M  V30 36 1 29 37 CFG=1
M  V30 37 1 29 38
M  V30 38 1 30 39
M  V30 39 1 31 40
M  V30 40 1 32 41 CFG=1
M  V30 41 1 32 42
M  V30 42 1 33 43
M  V30 43 1 38 44
M  V30 44 2 39 45
M  V30 45 1 40 46 CFG=1
M  V30 46 1 40 47
M  V30 47 1 40 48
M  V30 48 1 41 49
M  V30 49 1 42 50
M  V30 50 1 42 51 CFG=3
M  V30 51 2 47 52
M  V30 52 1 47 53
M  V30 53 1 48 54 CFG=1
M  V30 54 1 49 55
M  V30 55 1 51 56
M  V30 56 1 53 57
M  V30 57 1 54 58
M  V30 58 2 58 59
M  V30 59 1 58 60
M  V30 60 1 16 23
M  V30 61 2 17 18
M  V30 62 1 27 28
M  V30 63 1 29 36
M  V30 64 1 31 30 CFG=3
M  V30 65 1 34 35
M  V30 66 1 41 43
M  V30 67 1 42 48
M  V30 68 2 50 55
M  V30 END BOND
M  V30 BEGIN COLLECTION
M  V30 MDLV30/STEABS ATOMS=(9 4 13 24 29 31 32 40 42 48)
M  V30 END COLLECTION
M  V30 END CTAB
M  END
>  <Drug Name>
Vincristine

>  <Carbon Count>
46

>  <SMILES String>
O[C@@]1(CC)C[C@H]2C[C@@](C3=C(OC)C=C(N(C=O)[C@]4([H])[C@@]56[C@]7([H])[C@](C=CCN7CC6)(CC)[C@@H](OC(C)=O)[C@@]4(C(OC)=O)O)C5=C3)(C(OC)=O)C8=C(CC[N@](C2)C1)C9=CC=CC=C9N8

$$$$
Vincristine
Actelion Java MolfileCreator 2.0

  0  0  0  0  0  0              0 V3000
M  V30 BEGIN CTAB
M  V30 COUNTS 60 68 0 0 0
M  V30 BEGIN ATOM
M  V30 1 O 5.2793 3.7026 0.0 0
M  V30 2 C 6.315 4.2006 0.0 0
M  V30 3 O 6.3518 5.2257 0.0 0
M  V30 4 C 7.0252 3.6127 0.0 0 CFG=1
M  V30 5 C 7.269 5.5978 0.0 0
M  V30 6 C 6.0742 3.3037 0.0 0
M  V30 7 C 7.6409 2.8247 0.0 0
M  V30 8 C 7.0601 4.6121 0.0 0
M  V30 9 C 5.2861 4.0771 0.0 0
M  V30 10 C 5.8641 2.2576 0.0 0
M  V30 11 N 8.5545 2.4179 0.0 0
M  V30 12 C 6.9718 2.0815 0.0 0
M  V30 13 C 5.915 4.8033 0.0 0 CFG=2
M  V30 14 O 5.498 4.9151 0.0 0
M  V30 15 C 4.339 3.6279 0.0 0
M  V30 16 C 4.9152 2.0165 0.0 0
M  V30 17 C 8.4499 1.4234 0.0 0
M  V30 18 C 7.4718 1.2155 0.0 0
M  V30 19 C 6.2182 2.6169 0.0 0
M  V30 20 C 5.8381 3.8091 0.0 0
M  V30 21 C 5.3575 5.5718 0.0 0
M  V30 22 C 4.7741 5.6732 0.0 0
M  V30 23 C 4.1721 2.6856 0.0 0
M  V30 24 C 4.5085 1.103 0.0 0 CFG=1
M  V30 25 C 9.1191 0.6803 0.0 0
M  V30 26 C 7.1628 0.2644 0.0 0
M  V30 27 C 5.1257 2.507 0.0 0
M  V30 28 N 4.8496 3.4576 0.0 0
M  V30 29 C 4.2994 5.1606 0.0 0 CFG=1
M  V30 30 N 3.3061 2.1856 0.0 0
M  V30 31 C 3.514 1.2075 0.0 0 CFG=1
M  V30 32 C 4.1018 0.1894 0.0 0 CFG=1
M  V30 33 C 5.503 0.9984 0.0 0
M  V30 34 C 8.81 -0.2707 0.0 0
M  V30 35 C 7.8319 -0.4786 0.0 0
M  V30 36 C 4.0915 4.1824 0.0 0
M  V30 37 O 3.3483 4.8516 0.0 0
M  V30 38 C 3.5562 5.8297 0.0 0
M  V30 39 C 2.4295 2.5178 0.0 0
M  V30 40 C 2.598 1.0 0.0 0 CFG=1
M  V30 41 N 4.8449 -0.4796 0.0 0
M  V30 42 C 3.4641 -0.4999 0.0 0 CFG=2
M  V30 43 C 5.7109 0.0203 0.0 0
M  V30 44 C 2.6052 5.5207 0.0 0
M  V30 45 O 2.288 3.5869 0.0 0
M  V30 46 O 2.7993 1.9243 0.0 0
M  V30 47 C 1.8167 1.6241 0.0 0
M  V30 48 C 2.598 0.0 0.0 0 CFG=1
M  V30 49 C 5.0315 -1.4082 0.0 0
M  V30 50 C 3.3 -1.4511 0.0 0
M  V30 51 C 2.5585 -0.9243 0.0 0
M  V30 52 O 0.89 1.3192 0.0 0
M  V30 53 O 1.9298 2.6145 0.0 0
M  V30 54 O 1.732 -0.5 0.0 0
M  V30 55 C 4.1781 -1.9295 0.0 0
M  V30 56 C 2.4732 -1.9206 0.0 0
M  V30 57 C 2.8977 2.9774 0.0 0
M  V30 58 C 0.866 0.0 0.0 0
M  V30 59 O 0.857 0.8804 0.0 0
M  V30 60 C 0.0 -0.4999 0.0 0
M  V30 END ATOM
M  V30 BEGIN BOND
M  V30 1 2 1 2
M  V30 2 1 2 3
M  V30 3 1 4 2 CFG=3
M  V30 4 1 3 5
M  V30 5 1 4 6
M  V30 6 1 4 7
M  V30 7 1 4 8
M  V30 8 2 6 9
M  V30 9 1 6 10
M  V30 10 1 7 11
M  V30 11 2 7 12
M  V30 12 1 13 8 CFG=3
M  V30 13 1 9 14
M  V30 14 1 9 15
M  V30 15 2 10 16
M  V30 16 1 11 17
M  V30 17 1 12 18
M  V30 18 1 12 19
M  V30 19 1 13 20
M  V30 20 1 13 21
M  V30 21 1 14 22
M  V30 22 2 15 23
M  V30 23 1 24 16 CFG=3
M  V30 24 1 17 25
M  V30 25 1 18 26
M  V30 26 1 19 27
M  V30 27 1 20 28
M  V30 28 1 21 29
M  V30 29 1 23 30
M  V30 30 1 24 31
M  V30 31 1 24 32
M  V30 32 1 24 33
M  V30 33 2 25 34
M  V30 34 2 26 35
M  V30 35 1 28 36
M  V30 36 1 29 37 CFG=1
M  V30 37 1 29 38
M  V30 38 1 30 39
M  V30 39 1 31 40
M  V30 40 1 32 41 CFG=1
M  V30 41 1 32 42
M  V30 42 1 33 43
M  V30 43 1 38 44
M  V30 44 2 39 45
M  V30 45 1 40 46 CFG=1
M  V30 46 1 40 47
M  V30 47 1 40 48
M  V30 48 1 41 49
M  V30 49 1 42 50
M  V30 50 1 42 51 CFG=3
M  V30 51 2 47 52
M  V30 52 1 47 53
M  V30 53 1 48 54 CFG=1
M  V30 54 1 49 55
M  V30 55 1 51 56
M  V30 56 1 53 57
M  V30 57 1 54 58
M  V30 58 2 58 59
M  V30 59 1 58 60
M  V30 60 1 16 23
M  V30 61 2 17 18
M  V30 62 1 27 28
M  V30 63 1 29 36
M  V30 64 1 31 30 CFG=3
M  V30 65 1 34 35
M  V30 66 1 41 43
M  V30 67 1 42 48
M  V30 68 2 50 55
M  V30 END BOND
M  V30 BEGIN COLLECTION
M  V30 MDLV30/STEABS ATOMS=(9 4 13 24 29 31 32 40 42 48)
M  V30 END COLLECTION
M  V30 END CTAB
M  END
>  <Drug Name>
Vincristine

>  <Carbon Count>
46

>  <SMILES String>
O[C@@]1(CC)C[C@H]2C[C@@](C3=C(OC)C=C(N(C=O)[C@]4([H])[C@@]56[C@]7([H])[C@](C=CCN7CC6)(CC)[C@@H](OC(C)=O)[C@@]4(C(OC)=O)O)C5=C3)(C(OC)=O)C8=C(CC[N@](C2)C1)C9=CC=CC=C9N8

$$$$
Voxilaprevir
Actelion Java MolfileCreator 2.0

  0  0  0  0  0  0              0 V3000
M  V30 BEGIN CTAB
M  V30 COUNTS 60 66 0 0 0
M  V30 BEGIN ATOM
M  V30 1 S 7.4958 -1.5085 0.0 0
M  V30 2 O 6.6298 -2.0084 0.0 0
M  V30 3 O 7.4958 -2.5084 0.0 0
M  V30 4 N 6.9958 -0.6424 0.0 0
M  V30 5 C 8.4958 -1.5085 0.0 0
M  V30 6 C 5.9958 -0.6424 0.0 0
M  V30 7 C 9.3618 -2.0085 0.0 0
M  V30 8 C 9.3618 -1.0085 0.0 0
M  V30 9 C 8.237 -0.5425 0.0 0
M  V30 10 O 5.4958 -1.5085 0.0 0
M  V30 11 C 5.4958 0.2235 0.0 0 CFG=1
M  V30 12 N 4.7887 -0.4835 0.0 0
M  V30 13 C 5.7546 1.1894 0.0 0 CFG=2
M  V30 14 C 6.4617 0.4823 0.0 0
M  V30 15 C 3.8228 -0.2247 0.0 0
M  V30 16 C 5.4958 2.1553 0.0 0
M  V30 17 O 3.564 0.7411 0.0 0
M  V30 18 C 3.1157 -0.9318 0.0 0 CFG=2
M  V30 19 C 4.5299 2.4142 0.0 0
M  V30 20 C 6.2029 2.8625 0.0 0
M  V30 21 N 3.2721 -1.9195 0.0 0
M  V30 22 C 2.128 -0.7754 0.0 0 CFG=2
M  V30 23 C 4.101 -2.5866 0.0 0
M  V30 24 C 2.3811 -2.3735 0.0 0
M  V30 25 C 1.674 -1.6664 0.0 0 CFG=1
M  V30 26 C 1.674 0.1155 0.0 0
M  V30 27 O 5.034 -2.2269 0.0 0
M  V30 28 C 3.9445 -3.5743 0.0 0 CFG=2
M  V30 29 O 0.6795 -2.0447 0.0 0
M  V30 30 C 0.6754 0.1679 0.0 0
M  V30 31 N 3.011 -3.9327 0.0 0
M  V30 32 C 4.7217 -4.2036 0.0 0
M  V30 33 C -0.0975 -1.4154 0.0 0
M  V30 34 C 2.8545 -4.9204 0.0 0
M  V30 35 C 5.351 -3.4265 0.0 0
M  V30 36 C 5.4988 -4.833 0.0 0
M  V30 37 C 4.0924 -4.9808 0.0 0
M  V30 38 N 0.0588 -0.4277 0.0 0
M  V30 39 C -1.0311 -1.7738 0.0 0
M  V30 40 O 3.6317 -5.5497 0.0 0
M  V30 41 O 1.9209 -5.2787 0.0 0
M  V30 42 C -0.7182 0.2015 0.0 0
M  V30 43 N -1.8083 -1.1445 0.0 0
M  V30 44 C -1.1875 -2.7615 0.0 0
M  V30 45 C 1.7645 -6.2664 0.0 0 CFG=2
M  V30 46 C -1.6518 -0.1568 0.0 0
M  V30 47 C -0.5618 1.1892 0.0 0
M  V30 48 F -2.1752 -2.605 0.0 0
M  V30 49 F -1.8168 -3.5386 0.0 0
M  V30 50 C -0.4104 -3.3908 0.0 0
M  V30 51 C 0.8309 -6.6248 0.0 0 CFG=2
M  V30 52 C 1.6081 -7.2541 0.0 0
M  V30 53 C -2.429 0.4725 0.0 0
M  V30 54 C -1.3389 1.8185 0.0 0
M  V30 55 C -0.5668 -4.3785 0.0 0
M  V30 56 C 0.0538 -5.9955 0.0 0
M  V30 57 C -2.2725 1.4601 0.0 0
M  V30 58 O -1.1825 2.8062 0.0 0
M  V30 59 C 0.2102 -5.0078 0.0 0
M  V30 60 C -1.9597 3.4355 0.0 0
M  V30 END ATOM
M  V30 BEGIN BOND
M  V30 1 2 1 2
M  V30 2 2 1 3
M  V30 3 1 1 4
M  V30 4 1 1 5
M  V30 5 1 4 6
M  V30 6 1 5 7
M  V30 7 1 5 8
M  V30 8 1 5 9
M  V30 9 2 6 10
M  V30 10 1 6 11
M  V30 11 1 11 12 CFG=3
M  V30 12 1 11 13
M  V30 13 1 11 14
M  V30 14 1 12 15
M  V30 15 1 13 16 CFG=1
M  V30 16 2 15 17
M  V30 17 1 18 15 CFG=3
M  V30 18 1 16 19
M  V30 19 1 16 20
M  V30 20 1 18 21
M  V30 21 1 18 22
M  V30 22 1 21 23
M  V30 23 1 21 24
M  V30 24 1 22 25
M  V30 25 1 22 26 CFG=3
M  V30 26 2 23 27
M  V30 27 1 23 28
M  V30 28 1 25 29 CFG=1
M  V30 29 1 26 30
M  V30 30 1 28 31
M  V30 31 1 28 32 CFG=1
M  V30 32 1 29 33
M  V30 33 1 31 34
M  V30 34 1 32 35
M  V30 35 1 32 36
M  V30 36 1 32 37
M  V30 37 2 33 38
M  V30 38 1 33 39
M  V30 39 2 34 40
M  V30 40 1 34 41
M  V30 41 1 38 42
M  V30 42 2 39 43
M  V30 43 1 39 44
M  V30 44 1 41 45
M  V30 45 1 42 46
M  V30 46 2 42 47
M  V30 47 1 44 48
M  V30 48 1 44 49
M  V30 49 1 44 50
M  V30 50 1 45 51
M  V30 51 1 45 52 CFG=1
M  V30 52 2 46 53
M  V30 53 1 47 54
M  V30 54 1 50 55
M  V30 55 1 51 56
M  V30 56 1 53 57
M  V30 57 1 54 58
M  V30 58 1 55 59
M  V30 59 1 58 60
M  V30 60 1 7 8
M  V30 61 1 13 14
M  V30 62 1 24 25
M  V30 63 1 43 46
M  V30 64 1 51 52 CFG=3
M  V30 65 2 54 57
M  V30 66 1 56 59
M  V30 END BOND
M  V30 BEGIN COLLECTION
M  V30 MDLV30/STERAC1 ATOMS=(8 11 13 18 22 25 28 45 51)
M  V30 END COLLECTION
M  V30 END CTAB
M  END
>  <Drug Name>
Voxilaprevir

>  <Carbon Count>
40

>  <SMILES String>
CC[C@@H]1[C@@H]2CN([C@@H]1C(=O)N[C@@]3(C[C@H]3C(F)F)C(=O)NS(=O)(=O)C4(CC4)C)C(=O)[C@@H](NC(=O)O[C@@H]5C[C@H]5CCCCC(c6c(nc7cc(ccc7n6)OC)O2)(F)F)C(C)(C)C

$$$$
Paclitaxel
Actelion Java MolfileCreator 2.0

  0  0  0  0  0  0              0 V3000
M  V30 BEGIN CTAB
M  V30 COUNTS 62 68 0 0 0
M  V30 BEGIN ATOM
M  V30 1 O 10.4231 0.6345 0.0 0
M  V30 2 C 9.4572 0.8933 0.0 0
M  V30 3 C 9.3267 1.8847 0.0 0 CFG=1
M  V30 4 C 8.8484 0.0999 0.0 0 CFG=2
M  V30 5 C 8.5333 2.4935 0.0 0 CFG=1
M  V30 6 C 10.2505 2.2674 0.0 0 CFG=1
M  V30 7 C 10.1927 1.3847 0.0 0
M  V30 8 O 9.3326 -0.7749 0.0 0
M  V30 9 C 7.7942 0.0 0.0 0
M  V30 10 C 8.6638 3.4849 0.0 0 CFG=1
M  V30 11 C 7.5419 2.363 0.0 0 CFG=2
M  V30 12 O 11.0439 1.6586 0.0 0
M  V30 13 C 10.3811 3.2589 0.0 0
M  V30 14 C 8.8169 -1.6317 0.0 0
M  V30 15 C 6.9282 -0.5 0.0 0
M  V30 16 C 7.7942 0.9999 0.0 0
M  V30 17 O 7.6724 3.3544 0.0 0
M  V30 18 C 9.5877 3.8676 0.0 0 CFG=1
M  V30 19 C 8.2811 4.4088 0.0 0
M  V30 20 O 7.0262 3.2198 0.0 0
M  V30 21 C 6.9282 1.4999 0.0 0 CFG=2
M  V30 22 O 7.8171 -1.6136 0.0 0
M  V30 23 C 9.3011 -2.5067 0.0 0
M  V30 24 C 6.0621 0.0 0.0 0 CFG=2
M  V30 25 C 6.9282 -1.5 0.0 0
M  V30 26 C 8.7942 0.9999 0.0 0
M  V30 27 C 8.2942 1.866 0.0 0
M  V30 28 C 7.0636 4.1478 0.0 0
M  V30 29 O 9.205 4.7915 0.0 0
M  V30 30 C 6.0264 3.2016 0.0 0
M  V30 31 O 6.2553 2.2397 0.0 0
M  V30 32 C 6.0621 0.9999 0.0 0
M  V30 33 O 5.1961 -0.5 0.0 0
M  V30 34 O 7.4463 5.0716 0.0 0
M  V30 35 C 6.0894 4.0276 0.0 0
M  V30 36 O 5.5422 2.3266 0.0 0
M  V30 37 C 5.5107 4.0584 0.0 0
M  V30 38 C 4.3301 0.0 0.0 0
M  V30 39 C 4.5109 4.0402 0.0 0
M  V30 40 C 5.9949 4.9333 0.0 0
M  V30 41 O 4.3301 1.0 0.0 0
M  V30 42 C 3.4641 -0.5 0.0 0 CFG=2
M  V30 43 C 3.9952 4.897 0.0 0
M  V30 44 C 5.4792 5.7901 0.0 0
M  V30 45 O 3.4641 -1.5 0.0 0
M  V30 46 C 2.598 0.0 0.0 0 CFG=1
M  V30 47 C 4.4794 5.772 0.0 0
M  V30 48 N 1.732 -0.5 0.0 0
M  V30 49 C 2.598 1.0 0.0 0
M  V30 50 C 0.866 0.0 0.0 0
M  V30 51 C 3.4641 1.5 0.0 0
M  V30 52 C 1.732 1.4999 0.0 0
M  V30 53 O 0.866 1.0 0.0 0
M  V30 54 C 0.0 -0.5 0.0 0
M  V30 55 C 3.4641 2.5 0.0 0
M  V30 56 C 1.732 2.5 0.0 0
M  V30 57 C -0.866 0.0 0.0 0
M  V30 58 C 0.0 -1.4999 0.0 0
M  V30 59 C 2.598 3.0 0.0 0
M  V30 60 C -1.732 -0.4999 0.0 0
M  V30 61 C -0.866 -1.9999 0.0 0
M  V30 62 C -1.732 -1.4999 0.0 0
M  V30 END ATOM
M  V30 BEGIN BOND
M  V30 1 2 1 2
M  V30 2 1 2 3
M  V30 3 1 2 4
M  V30 4 1 3 5
M  V30 5 1 3 6
M  V30 6 1 3 7 CFG=3
M  V30 7 1 4 8 CFG=3
M  V30 8 1 4 9
M  V30 9 1 5 10
M  V30 10 1 5 11 CFG=3
M  V30 11 1 6 12 CFG=3
M  V30 12 1 6 13
M  V30 13 1 8 14
M  V30 14 2 9 15
M  V30 15 1 9 16
M  V30 16 1 10 17 CFG=1
M  V30 17 1 10 18
M  V30 18 1 10 19
M  V30 19 1 11 20 CFG=1
M  V30 20 1 11 21
M  V30 21 2 14 22
M  V30 22 1 14 23
M  V30 23 1 15 24
M  V30 24 1 15 25
M  V30 25 1 16 26
M  V30 26 1 16 27
M  V30 27 1 17 28
M  V30 28 1 18 29 CFG=3
M  V30 29 1 20 30
M  V30 30 1 21 31 CFG=3
M  V30 31 1 21 32
M  V30 32 1 24 33 CFG=1
M  V30 33 2 28 34
M  V30 34 1 28 35
M  V30 35 2 30 36
M  V30 36 1 30 37
M  V30 37 1 33 38
M  V30 38 2 37 39
M  V30 39 1 37 40
M  V30 40 2 38 41
M  V30 41 1 38 42
M  V30 42 1 39 43
M  V30 43 2 40 44
M  V30 44 1 42 45 CFG=3
M  V30 45 1 42 46
M  V30 46 2 43 47
M  V30 47 1 46 48 CFG=1
M  V30 48 1 46 49
M  V30 49 1 48 50
M  V30 50 2 49 51
M  V30 51 1 49 52
M  V30 52 2 50 53
M  V30 53 1 50 54
M  V30 54 1 51 55
M  V30 55 2 52 56
M  V30 56 2 54 57
M  V30 57 1 54 58
M  V30 58 2 55 59
M  V30 59 1 57 60
M  V30 60 2 58 61
M  V30 61 2 60 62
M  V30 62 1 13 18
M  V30 63 1 16 21
M  V30 64 1 19 29
M  V30 65 1 24 32
M  V30 66 1 44 47
M  V30 67 1 56 59
M  V30 68 1 61 62
M  V30 END BOND
M  V30 BEGIN COLLECTION
M  V30 MDLV30/STEABS ATOMS=(11 3 4 5 6 10 11 18 21 24 42 46)
M  V30 END COLLECTION
M  V30 END CTAB
M  END
>  <Drug Name>
Paclitaxel

>  <Carbon Count>
47

>  <SMILES String>
CC1=C([C@@H](OC(C)=O)C([C@@]2(C)[C@]([C@@](CO3)(OC(C)=O)[C@@]3([H])C[C@@H]2O)([H])[C@@H]4OC(C5=CC=CC=C5)=O)=O)C(C)(C)[C@@]4(O)C[C@@H]1OC([C@H](O)[C@H](C6=CC=CC=C6)NC(C7=CC=CC=C7)=O)=O

$$$$
Ledipasvir
Actelion Java MolfileCreator 2.0

  0  0  0  0  0  0              0 V3000
M  V30 BEGIN CTAB
M  V30 COUNTS 65 74 0 0 0
M  V30 BEGIN ATOM
M  V30 1 F 7.2805 5.7346 0.0 0
M  V30 2 C 6.3295 6.0437 0.0 0
M  V30 3 F 7.0726 6.7128 0.0 0
M  V30 4 C 5.5863 6.7128 0.0 0
M  V30 5 C 5.9227 5.1301 0.0 0
M  V30 6 C 4.7203 6.2128 0.0 0
M  V30 7 C 5.5863 7.7128 0.0 0
M  V30 8 C 4.9282 5.2346 0.0 0
M  V30 9 C 6.3295 4.2166 0.0 0
M  V30 10 C 3.8543 6.7128 0.0 0
M  V30 11 C 4.7203 8.2128 0.0 0
M  V30 12 C 4.3404 4.4256 0.0 0
M  V30 13 C 5.7417 3.4075 0.0 0
M  V30 14 C 3.8543 7.7128 0.0 0
M  V30 15 C 4.7203 9.2128 0.0 0
M  V30 16 C 4.7472 3.5121 0.0 0
M  V30 17 C 6.1484 2.494 0.0 0
M  V30 18 C 5.5863 9.7128 0.0 0
M  V30 19 C 3.8543 9.7128 0.0 0
M  V30 20 N 5.6484 1.628 0.0 0
M  V30 21 C 7.1266 2.2861 0.0 0
M  V30 22 C 5.5863 10.7128 0.0 0
M  V30 23 C 3.8543 10.7128 0.0 0
M  V30 24 C 6.3176 0.8848 0.0 0
M  V30 25 N 7.2311 1.2916 0.0 0
M  V30 26 N 6.3295 11.3819 0.0 0
M  V30 27 C 4.7203 11.2128 0.0 0
M  V30 28 C 6.1096 -0.0932 0.0 0 CFG=1
M  V30 29 C 5.9227 12.2955 0.0 0
M  V30 30 N 4.9282 12.1909 0.0 0
M  V30 31 N 5.1961 -0.5 0.0 0
M  V30 32 C 6.7788 -0.8364 0.0 0
M  V30 33 C 6.4227 13.1615 0.0 0 CFG=1
M  V30 34 C 4.3301 0.0 0.0 0
M  V30 35 C 5.3006 -1.4945 0.0 0
M  V30 36 C 6.2788 -1.7024 0.0 0
M  V30 37 N 7.4173 13.266 0.0 0
M  V30 38 C 6.016 14.075 0.0 0 CFG=2
M  V30 39 O 4.3301 1.0 0.0 0
M  V30 40 C 3.4641 -0.5 0.0 0 CFG=1
M  V30 41 C 6.1743 -2.6969 0.0 0
M  V30 42 C 7.0878 -2.2902 0.0 0
M  V30 43 C 8.0864 12.5229 0.0 0
M  V30 44 C 7.6252 14.2442 0.0 0 CFG=1
M  V30 45 C 6.7591 14.7442 0.0 0
M  V30 46 C 6.183 15.4429 0.0 0
M  V30 47 N 2.598 0.0 0.0 0
M  V30 48 C 3.4641 -1.5 0.0 0
M  V30 49 O 7.7774 11.5718 0.0 0
M  V30 50 C 9.0645 12.7308 0.0 0 CFG=1
M  V30 51 C 7.1775 15.5474 0.0 0
M  V30 52 C 1.732 -0.5 0.0 0
M  V30 53 C 2.598 -1.9999 0.0 0
M  V30 54 C 4.3301 -2.0 0.0 0
M  V30 55 N 9.7337 11.9876 0.0 0
M  V30 56 C 9.3736 13.6818 0.0 0
M  V30 57 O 0.866 0.0 0.0 0
M  V30 58 O 1.732 -1.5 0.0 0
M  V30 59 C 10.7118 12.1956 0.0 0
M  V30 60 C 10.3517 13.8898 0.0 0
M  V30 61 C 8.7044 14.425 0.0 0
M  V30 62 C 0.0 -0.5 0.0 0
M  V30 63 O 11.3809 11.4524 0.0 0
M  V30 64 O 11.0208 13.1466 0.0 0
M  V30 65 C 12.3591 11.6603 0.0 0
M  V30 END ATOM
M  V30 BEGIN BOND
M  V30 1 1 1 2
M  V30 2 1 2 3
M  V30 3 1 2 4
M  V30 4 1 2 5
M  V30 5 2 4 6
M  V30 6 1 4 7
M  V30 7 2 5 8
M  V30 8 1 5 9
M  V30 9 1 6 10
M  V30 10 2 7 11
M  V30 11 1 8 12
M  V30 12 2 9 13
M  V30 13 2 10 14
M  V30 14 1 11 15
M  V30 15 2 12 16
M  V30 16 1 13 17
M  V30 17 2 15 18
M  V30 18 1 15 19
M  V30 19 1 17 20
M  V30 20 2 17 21
M  V30 21 1 18 22
M  V30 22 2 19 23
M  V30 23 1 20 24
M  V30 24 1 21 25
M  V30 25 1 22 26
M  V30 26 2 22 27
M  V30 27 1 28 24 CFG=3
M  V30 28 1 26 29
M  V30 29 1 27 30
M  V30 30 1 28 31
M  V30 31 1 28 32
M  V30 32 1 33 29 CFG=3
M  V30 33 1 31 34
M  V30 34 1 31 35
M  V30 35 1 32 36
M  V30 36 1 33 37
M  V30 37 1 33 38
M  V30 38 2 34 39
M  V30 39 1 34 40
M  V30 40 1 36 41
M  V30 41 1 36 42
M  V30 42 1 37 43
M  V30 43 1 44 37 CFG=1
M  V30 44 1 38 45 CFG=3
M  V30 45 1 38 46
M  V30 46 1 40 47 CFG=3
M  V30 47 1 40 48
M  V30 48 2 43 49
M  V30 49 1 43 50
M  V30 50 1 44 51
M  V30 51 2 47 52 CFG=2
M  V30 52 1 48 53
M  V30 53 1 48 54
M  V30 54 1 50 55 CFG=3
M  V30 55 1 50 56
M  V30 56 1 52 57
M  V30 57 1 52 58
M  V30 58 2 55 59 CFG=2
M  V30 59 1 56 60
M  V30 60 1 56 61
M  V30 61 1 57 62
M  V30 62 1 59 63
M  V30 63 1 59 64
M  V30 64 1 63 65
M  V30 65 1 6 8
M  V30 66 1 11 14
M  V30 67 1 13 16
M  V30 68 1 23 27
M  V30 69 2 24 25
M  V30 70 2 29 30
M  V30 71 1 35 36
M  V30 72 1 41 42
M  V30 73 1 44 45
M  V30 74 1 46 51
M  V30 END BOND
M  V30 BEGIN COLLECTION
M  V30 MDLV30/STEABS ATOMS=(6 28 33 38 40 44 50)
M  V30 END COLLECTION
M  V30 END CTAB
M  END
>  <Drug Name>
Ledipasvir

>  <Carbon Count>
49

>  <SMILES String>
O=C(N1[C@@H]2C[C@H]([C@H]1C3=NC4=CC=C(C5=CC6=C(C7=C(C=C(C=C7)C8=CNC([C@@H]9CC%10(CN9C([C@@H](NC(OC)=O)C(C)C)=O)CC%10)=N8)C6(F)F)C=C5)C=C4N3)CC2)[C@@H](NC(OC)=O)C(C)C

$$$$
Ombitasvir
Actelion Java MolfileCreator 2.0

  0  0  0  0  0  0              0 V3000
M  V30 BEGIN CTAB
M  V30 COUNTS 65 70 0 0 0
M  V30 BEGIN ATOM
M  V30 1 O 3.9064 -5.8385 0.0 0
M  V30 2 C 4.9009 -5.943 0.0 0
M  V30 3 O 5.3076 -6.8566 0.0 0
M  V30 4 N 5.4887 -5.134 0.0 0
M  V30 5 C 4.7199 -7.6656 0.0 0
M  V30 6 C 5.082 -4.2205 0.0 0 CFG=2
M  V30 7 C 4.0874 -4.1159 0.0 0
M  V30 8 C 5.6697 -3.4114 0.0 0
M  V30 9 O 3.4997 -4.9249 0.0 0
M  V30 10 N 3.6807 -3.2024 0.0 0
M  V30 11 C 6.6643 -3.516 0.0 0
M  V30 12 C 5.263 -2.4979 0.0 0
M  V30 13 C 2.7026 -2.9945 0.0 0 CFG=2
M  V30 14 C 4.1807 -2.3364 0.0 0
M  V30 15 C 1.9594 -3.6636 0.0 0
M  V30 16 C 2.598 -1.9999 0.0 0
M  V30 17 C 3.5116 -1.5932 0.0 0
M  V30 18 O 2.1673 -4.6418 0.0 0
M  V30 19 N 1.0084 -3.3546 0.0 0
M  V30 20 C 0.2652 -4.0237 0.0 0
M  V30 21 C -0.6857 -3.7147 0.0 0
M  V30 22 C 0.4731 -5.0019 0.0 0
M  V30 23 C -1.4289 -4.3838 0.0 0
M  V30 24 C -0.2699 -5.671 0.0 0
M  V30 25 C -1.221 -5.362 0.0 0
M  V30 26 C -1.9641 -6.0311 0.0 0 CFG=1
M  V30 27 N -2.9423 -5.8232 0.0 0
M  V30 28 C -1.8596 -7.0256 0.0 0
M  V30 29 C -3.349 -4.9097 0.0 0
M  V30 30 C -3.4423 -6.6892 0.0 0 CFG=1
M  V30 31 C -2.7731 -7.4324 0.0 0
M  V30 32 C -2.7612 -4.1006 0.0 0
M  V30 33 C -4.3435 -4.8051 0.0 0
M  V30 34 C -4.4368 -6.7938 0.0 0
M  V30 35 C -3.168 -3.1871 0.0 0
M  V30 36 C -4.7503 -3.8916 0.0 0
M  V30 37 C -5.0246 -5.9847 0.0 0
M  V30 38 C -4.8435 -7.7073 0.0 0
M  V30 39 C -4.1625 -3.0826 0.0 0
M  V30 40 C -6.0191 -6.0893 0.0 0
M  V30 41 C -5.8381 -7.8118 0.0 0
M  V30 42 C -4.5692 -2.169 0.0 0
M  V30 43 C -6.4258 -7.0028 0.0 0
M  V30 44 C -5.4828 -2.5758 0.0 0
M  V30 45 C -4.976 -1.2555 0.0 0
M  V30 46 C -3.6557 -1.7623 0.0 0
M  V30 47 N -7.4204 -7.1073 0.0 0
M  V30 48 C -8.0081 -6.2983 0.0 0
M  V30 49 O -7.6014 -5.3848 0.0 0
M  V30 50 C -9.0027 -6.4028 0.0 0 CFG=1
M  V30 51 N -9.6718 -5.6597 0.0 0
M  V30 52 C -9.5027 -7.2689 0.0 0
M  V30 53 C -9.4639 -4.6816 0.0 0
M  V30 54 C -10.5853 -6.0664 0.0 0
M  V30 55 C -10.4808 -7.061 0.0 0
M  V30 56 O -8.5128 -4.3725 0.0 0
M  V30 57 C -10.207 -4.0124 0.0 0 CFG=1
M  V30 58 N -9.9991 -3.0343 0.0 0
M  V30 59 C -11.1581 -4.3214 0.0 0
M  V30 60 C -10.7423 -2.3651 0.0 0
M  V30 61 C -11.9012 -3.6523 0.0 0
M  V30 62 C -11.366 -5.2996 0.0 0
M  V30 63 O -11.6933 -2.6742 0.0 0
M  V30 64 O -10.5344 -1.387 0.0 0
M  V30 65 C -11.2775 -0.7179 0.0 0
M  V30 END ATOM
M  V30 BEGIN BOND
M  V30 1 2 1 2
M  V30 2 1 2 3
M  V30 3 1 2 4
M  V30 4 1 3 5
M  V30 5 1 6 4 CFG=3
M  V30 6 1 6 7
M  V30 7 1 6 8
M  V30 8 2 7 9
M  V30 9 1 7 10
M  V30 10 1 8 11
M  V30 11 1 8 12
M  V30 12 1 10 13
M  V30 13 1 10 14
M  V30 14 1 13 15 CFG=3
M  V30 15 1 13 16
M  V30 16 1 14 17
M  V30 17 2 15 18
M  V30 18 1 15 19
M  V30 19 1 19 20
M  V30 20 2 20 21
M  V30 21 1 20 22
M  V30 22 1 21 23
M  V30 23 2 22 24
M  V30 24 2 23 25
M  V30 25 1 26 25 CFG=3
M  V30 26 1 26 27
M  V30 27 1 26 28
M  V30 28 1 27 29
M  V30 29 1 27 30
M  V30 30 1 28 31
M  V30 31 2 29 32
M  V30 32 1 29 33
M  V30 33 1 30 34 CFG=1
M  V30 34 1 32 35
M  V30 35 2 33 36
M  V30 36 2 34 37
M  V30 37 1 34 38
M  V30 38 2 35 39
M  V30 39 1 37 40
M  V30 40 2 38 41
M  V30 41 1 39 42
M  V30 42 2 40 43
M  V30 43 1 42 44
M  V30 44 1 42 45
M  V30 45 1 42 46
M  V30 46 1 43 47
M  V30 47 1 47 48
M  V30 48 2 48 49
M  V30 49 1 50 48 CFG=3
M  V30 50 1 50 51
M  V30 51 1 50 52
M  V30 52 1 51 53
M  V30 53 1 51 54
M  V30 54 1 52 55
M  V30 55 2 53 56
M  V30 56 1 53 57
M  V30 57 1 57 58 CFG=3
M  V30 58 1 57 59
M  V30 59 1 58 60
M  V30 60 1 59 61
M  V30 61 1 59 62
M  V30 62 2 60 63
M  V30 63 1 60 64
M  V30 64 1 64 65
M  V30 65 1 16 17
M  V30 66 1 24 25
M  V30 67 1 30 31
M  V30 68 1 36 39
M  V30 69 1 41 43
M  V30 70 1 54 55
M  V30 END BOND
M  V30 BEGIN COLLECTION
M  V30 MDLV30/STERAC1 ATOMS=(6 6 13 26 30 50 57)
M  V30 END COLLECTION
M  V30 END CTAB
M  END
>  <Drug Name>
Ombitasvir

>  <Carbon Count>
50

>  <SMILES String>
CC(C)(C1=CC=C(C=C1)N2[C@@H](CC[C@H]2C3=CC=C(C=C3)NC([C@H]4N(C([C@@H](NC(OC)=O)C(C)C)=O)CCC4)=O)C5=CC=C(C=C5)NC([C@H]6N(C([C@@H](NC(OC)=O)C(C)C)=O)CCC6)=O)C

$$$$
Velpatasvir
Actelion Java MolfileCreator 2.0

  0  0  0  0  0  0              0 V3000
M  V30 BEGIN CTAB
M  V30 COUNTS 65 73 0 0 0
M  V30 BEGIN ATOM
M  V30 1 O 5.1961 -0.5 0.0 0
M  V30 2 C 4.3301 0.0 0.0 0
M  V30 3 N 4.3301 1.0 0.0 0
M  V30 4 C 3.4641 -0.5 0.0 0 CFG=2
M  V30 5 C 5.1391 1.5877 0.0 0 CFG=2
M  V30 6 C 3.5211 1.5877 0.0 0
M  V30 7 N 2.598 0.0 0.0 0
M  V30 8 C 3.4641 -1.5 0.0 0
M  V30 9 C 6.0902 1.2787 0.0 0
M  V30 10 C 4.8301 2.5388 0.0 0
M  V30 11 C 3.8301 2.5388 0.0 0 CFG=2
M  V30 12 C 1.732 -0.5 0.0 0
M  V30 13 C 2.598 -1.9999 0.0 0
M  V30 14 C 4.3301 -2.0 0.0 0
M  V30 15 N 6.3992 0.3277 0.0 0
M  V30 16 N 6.8992 1.8665 0.0 0
M  V30 17 C 3.2423 3.3478 0.0 0
M  V30 18 O 0.866 0.0 0.0 0
M  V30 19 O 1.732 -1.5 0.0 0
M  V30 20 C 2.598 -2.9999 0.0 0
M  V30 21 C 4.3301 -3.0 0.0 0
M  V30 22 C 7.3992 0.3277 0.0 0
M  V30 23 C 7.7082 1.2787 0.0 0
M  V30 24 O 3.649 4.2614 0.0 0
M  V30 25 C 0.0 -0.5 0.0 0
M  V30 26 C 3.4641 -3.5 0.0 0
M  V30 27 C 8.6592 1.5877 0.0 0
M  V30 28 C 3.0612 5.0704 0.0 0
M  V30 29 C 9.4024 0.9186 0.0 0
M  V30 30 C 8.8672 2.5659 0.0 0
M  V30 31 C 10.3534 1.2276 0.0 0
M  V30 32 C 9.8182 2.8749 0.0 0
M  V30 33 C 10.5614 2.2058 0.0 0
M  V30 34 C 11.0966 0.5585 0.0 0
M  V30 35 C 11.5124 2.5148 0.0 0
M  V30 36 O 12.0476 0.8675 0.0 0
M  V30 37 C 12.2556 1.8457 0.0 0
M  V30 38 C 11.7203 3.4929 0.0 0
M  V30 39 C 13.2066 2.1547 0.0 0
M  V30 40 C 12.6714 3.802 0.0 0
M  V30 41 C 13.4145 3.1328 0.0 0
M  V30 42 C 12.8793 4.7801 0.0 0
M  V30 43 C 14.3656 3.4418 0.0 0
M  V30 44 C 13.8303 5.0891 0.0 0
M  V30 45 N 15.2316 2.9418 0.0 0
M  V30 46 C 14.5735 4.42 0.0 0
M  V30 47 C 15.9748 3.611 0.0 0
M  V30 48 N 15.568 4.5245 0.0 0
M  V30 49 C 16.9529 3.4031 0.0 0 CFG=1
M  V30 50 N 17.696 4.0722 0.0 0
M  V30 51 C 17.3596 2.4895 0.0 0
M  V30 52 C 17.5915 5.0667 0.0 0
M  V30 53 C 18.5621 3.5722 0.0 0 CFG=2
M  V30 54 C 18.3542 2.594 0.0 0
M  V30 55 O 16.678 5.4734 0.0 0
M  V30 56 C 18.4005 5.6545 0.0 0 CFG=1
M  V30 57 C 19.4756 3.9789 0.0 0
M  V30 58 N 19.3141 5.2478 0.0 0
M  V30 59 C 18.296 6.649 0.0 0
M  V30 60 C 20.1231 5.8355 0.0 0
M  V30 61 C 19.105 7.2368 0.0 0
M  V30 62 C 17.3825 7.0558 0.0 0
M  V30 63 O 21.0366 5.4288 0.0 0
M  V30 64 O 20.0186 6.8301 0.0 0
M  V30 65 C 21.8457 6.0166 0.0 0
M  V30 END ATOM
M  V30 BEGIN BOND
M  V30 1 2 1 2
M  V30 2 1 2 3
M  V30 3 1 2 4
M  V30 4 1 3 5
M  V30 5 1 3 6
M  V30 6 1 4 7 CFG=1
M  V30 7 1 4 8
M  V30 8 1 5 9 CFG=1
M  V30 9 1 5 10
M  V30 10 1 6 11
M  V30 11 2 7 12 CFG=2
M  V30 12 2 8 13
M  V30 13 1 8 14
M  V30 14 2 9 15
M  V30 15 1 9 16
M  V30 16 1 11 17 CFG=1
M  V30 17 1 12 18
M  V30 18 1 12 19
M  V30 19 1 13 20
M  V30 20 2 14 21
M  V30 21 1 15 22
M  V30 22 1 16 23
M  V30 23 1 17 24
M  V30 24 1 18 25
M  V30 25 2 20 26
M  V30 26 1 23 27
M  V30 27 1 24 28
M  V30 28 2 27 29
M  V30 29 1 27 30
M  V30 30 1 29 31
M  V30 31 2 30 32
M  V30 32 2 31 33
M  V30 33 1 31 34
M  V30 34 1 33 35
M  V30 35 1 34 36
M  V30 36 1 35 37
M  V30 37 2 35 38
M  V30 38 2 37 39
M  V30 39 1 38 40
M  V30 40 1 39 41
M  V30 41 2 40 42
M  V30 42 2 41 43
M  V30 43 1 42 44
M  V30 44 1 43 45
M  V30 45 1 43 46
M  V30 46 1 45 47
M  V30 47 1 46 48
M  V30 48 1 49 47 CFG=1
M  V30 49 1 49 50
M  V30 50 1 49 51
M  V30 51 1 50 52
M  V30 52 1 50 53
M  V30 53 1 51 54
M  V30 54 2 52 55
M  V30 55 1 52 56
M  V30 56 1 53 57 CFG=1
M  V30 57 1 56 58 CFG=3
M  V30 58 1 56 59
M  V30 59 2 58 60 CFG=2
M  V30 60 1 59 61
M  V30 61 1 59 62
M  V30 62 1 60 63
M  V30 63 1 60 64
M  V30 64 1 63 65
M  V30 65 1 10 11
M  V30 66 1 21 26
M  V30 67 2 22 23
M  V30 68 1 32 33
M  V30 69 1 36 37
M  V30 70 1 40 41
M  V30 71 2 44 46
M  V30 72 2 47 48
M  V30 73 1 53 54
M  V30 END BOND
M  V30 BEGIN COLLECTION
M  V30 MDLV30/STERAC1 ATOMS=(6 4 5 11 49 53 56)
M  V30 END COLLECTION
M  V30 END CTAB
M  END
>  <Drug Name>
Velpatasvir

>  <Carbon Count>
49

>  <SMILES String>
O=C([C@@H](NC(OC)=O)C(C)C)N([C@H](C1=NC2=C(N1)C3=C(C=C2)C=C4C(OCC5=CC(C6=CN=C(N6)[C@@H]7C[C@@H](CN7C([C@H](NC(OC)=O)C8=CC=CC=C8)=O)COC)=CC=C54)=C3)CC9)[C@H]9C

$$$$
Elbasvir
Actelion Java MolfileCreator 2.0

  0  0  0  0  0  0              0 V3000
M  V30 BEGIN CTAB
M  V30 COUNTS 65 73 0 0 0
M  V30 BEGIN ATOM
M  V30 1 O 3.9064 -5.8385 0.0 0
M  V30 2 C 4.9009 -5.943 0.0 0
M  V30 3 O 5.3076 -6.8566 0.0 0
M  V30 4 N 5.4887 -5.134 0.0 0
M  V30 5 C 4.7199 -7.6656 0.0 0
M  V30 6 C 5.082 -4.2205 0.0 0 CFG=2
M  V30 7 C 4.0874 -4.1159 0.0 0
M  V30 8 C 5.6697 -3.4114 0.0 0
M  V30 9 O 3.4997 -4.9249 0.0 0
M  V30 10 N 3.6807 -3.2024 0.0 0
M  V30 11 C 6.6643 -3.516 0.0 0
M  V30 12 C 5.263 -2.4979 0.0 0
M  V30 13 C 2.7026 -2.9945 0.0 0 CFG=2
M  V30 14 C 4.1807 -2.3364 0.0 0
M  V30 15 C 1.9594 -3.6636 0.0 0
M  V30 16 C 2.598 -2.0 0.0 0
M  V30 17 C 3.5116 -1.5932 0.0 0
M  V30 18 N 0.9813 -3.4557 0.0 0
M  V30 19 N 2.0639 -4.6581 0.0 0
M  V30 20 C 0.4813 -4.3217 0.0 0
M  V30 21 C 1.1504 -5.0649 0.0 0
M  V30 22 C -0.5132 -4.4262 0.0 0
M  V30 23 C -1.1009 -3.6172 0.0 0
M  V30 24 C -0.9199 -5.3398 0.0 0
M  V30 25 C -2.0955 -3.7218 0.0 0
M  V30 26 C -1.9144 -5.4443 0.0 0
M  V30 27 O -2.6833 -2.9127 0.0 0
M  V30 28 C -2.5022 -4.6353 0.0 0
M  V30 29 C -3.6778 -3.0173 0.0 0 CFG=2
M  V30 30 C -3.4967 -4.7398 0.0 0
M  V30 31 N -4.0845 -3.9308 0.0 0
M  V30 32 C -4.2656 -2.2083 0.0 0
M  V30 33 C -4.0845 -5.5488 0.0 0
M  V30 34 C -5.0356 -4.2398 0.0 0
M  V30 35 C -3.8588 -1.2947 0.0 0
M  V30 36 C -5.2601 -2.3128 0.0 0
M  V30 37 C -5.0356 -5.2398 0.0 0
M  V30 38 C -5.9016 -3.7398 0.0 0
M  V30 39 C -4.4466 -0.4857 0.0 0
M  V30 40 C -5.8479 -1.5038 0.0 0
M  V30 41 C -5.9016 -5.7398 0.0 0
M  V30 42 C -6.7676 -4.2398 0.0 0
M  V30 43 C -5.4411 -0.5902 0.0 0
M  V30 44 C -6.7676 -5.2398 0.0 0
M  V30 45 C -7.6336 -5.7398 0.0 0
M  V30 46 N -8.5472 -5.3331 0.0 0
M  V30 47 C -7.7382 -6.7344 0.0 0
M  V30 48 C -9.2163 -6.0762 0.0 0
M  V30 49 N -8.7163 -6.9423 0.0 0
M  V30 50 C -10.2108 -5.9717 0.0 0 CFG=1
M  V30 51 N -10.7108 -5.1057 0.0 0
M  V30 52 C -10.88 -6.7149 0.0 0
M  V30 53 C -10.3041 -4.1921 0.0 0
M  V30 54 C -11.689 -5.3136 0.0 0
M  V30 55 C -11.7935 -6.3081 0.0 0
M  V30 56 O -9.3096 -4.0876 0.0 0
M  V30 57 C -10.8919 -3.3831 0.0 0 CFG=1
M  V30 58 N -10.4852 -2.4696 0.0 0
M  V30 59 C -11.8864 -3.4877 0.0 0
M  V30 60 C -11.0729 -1.6606 0.0 0
M  V30 61 C -12.4742 -2.6786 0.0 0
M  V30 62 C -12.2931 -4.4012 0.0 0
M  V30 63 O -12.0675 -1.7651 0.0 0
M  V30 64 O -10.6662 -0.747 0.0 0
M  V30 65 C -11.254 0.0619 0.0 0
M  V30 END ATOM
M  V30 BEGIN BOND
M  V30 1 2 1 2
M  V30 2 1 2 3
M  V30 3 1 2 4
M  V30 4 1 3 5
M  V30 5 1 6 4 CFG=3
M  V30 6 1 6 7
M  V30 7 1 6 8
M  V30 8 2 7 9
M  V30 9 1 7 10
M  V30 10 1 8 11
M  V30 11 1 8 12
M  V30 12 1 10 13
M  V30 13 1 10 14
M  V30 14 1 13 15 CFG=3
M  V30 15 1 13 16
M  V30 16 1 14 17
M  V30 17 2 15 18
M  V30 18 1 15 19
M  V30 19 1 18 20
M  V30 20 1 19 21
M  V30 21 1 20 22
M  V30 22 2 22 23
M  V30 23 1 22 24
M  V30 24 1 23 25
M  V30 25 2 24 26
M  V30 26 1 25 27
M  V30 27 2 25 28
M  V30 28 1 27 29
M  V30 29 1 28 30
M  V30 30 1 29 31
M  V30 31 1 29 32 CFG=3
M  V30 32 2 30 33
M  V30 33 1 31 34
M  V30 34 2 32 35
M  V30 35 1 32 36
M  V30 36 1 33 37
M  V30 37 1 34 38
M  V30 38 1 35 39
M  V30 39 2 36 40
M  V30 40 1 37 41
M  V30 41 2 38 42
M  V30 42 2 39 43
M  V30 43 2 41 44
M  V30 44 1 44 45
M  V30 45 1 45 46
M  V30 46 2 45 47
M  V30 47 2 46 48
M  V30 48 1 47 49
M  V30 49 1 50 48 CFG=3
M  V30 50 1 50 51
M  V30 51 1 50 52
M  V30 52 1 51 53
M  V30 53 1 51 54
M  V30 54 1 52 55
M  V30 55 2 53 56
M  V30 56 1 53 57
M  V30 57 1 57 58 CFG=3
M  V30 58 1 57 59
M  V30 59 1 58 60
M  V30 60 1 59 61
M  V30 61 1 59 62
M  V30 62 2 60 63
M  V30 63 1 60 64
M  V30 64 1 64 65
M  V30 65 1 16 17
M  V30 66 2 20 21
M  V30 67 1 26 28
M  V30 68 1 30 31
M  V30 69 2 34 37
M  V30 70 1 40 43
M  V30 71 1 42 44
M  V30 72 1 48 49
M  V30 73 1 54 55
M  V30 END BOND
M  V30 BEGIN COLLECTION
M  V30 MDLV30/STERAC1 ATOMS=(5 6 13 29 50 57)
M  V30 END COLLECTION
M  V30 END CTAB
M  END
>  <Drug Name>
Elbasvir

>  <Carbon Count>
49

>  <SMILES String>
O=C([C@H](C(C)C)NC(OC)=O)N1[C@@H](CCC1)C2=NC=C(N2)C3=CC=C4C5=CC6=C(C=CC(C7=CN=C(N7)[C@H]8N(CCC8)C([C@H](C(C)C)NC(OC)=O)=O)=C6)N5[C@@H](OC4=C3)C9=CC=CC=C9

$$$$
Nystatin
Actelion Java MolfileCreator 2.0

  0  0  0  0  0  0              0 V3000
M  V30 BEGIN CTAB
M  V30 COUNTS 65 66 0 0 0
M  V30 BEGIN ATOM
M  V30 1 O 13.5825 -6.001 0.0 0
M  V30 2 C 12.646 -5.6504 0.0 0
M  V30 3 O 12.2192 -6.5547 0.0 0
M  V30 4 C 12.9181 -4.6881 0.0 0
M  V30 5 C 11.6494 -7.3765 0.0 0
M  V30 6 C 13.0281 -3.6942 0.0 0
M  V30 7 C 10.9521 -8.0933 0.0 0
M  V30 8 C 12.4213 -8.0122 0.0 0
M  V30 9 O 14.0277 -3.7217 0.0 0
M  V30 10 C 12.973 -2.6957 0.0 0
M  V30 11 C 10.1463 -8.6855 0.0 0
M  V30 12 C 11.6088 -8.8474 0.0 0
M  V30 13 C 12.7543 -1.7199 0.0 0
M  V30 14 O 10.67 -9.5374 0.0 0
M  V30 15 C 9.2541 -9.1371 0.0 0
M  V30 16 O 13.7087 -1.4214 0.0 0
M  V30 17 C 12.378 -0.7934 0.0 0
M  V30 18 C 8.2997 -9.4356 0.0 0
M  V30 19 C 9.6304 -10.0636 0.0 0
M  V30 20 C 11.8543 0.0584 0.0 0
M  V30 21 C 7.3091 -9.5729 0.0 0
M  V30 22 O 12.6601 0.6506 0.0 0
M  V30 23 C 11.1976 0.8125 0.0 0
M  V30 24 C 6.3095 -9.5454 0.0 0
M  V30 25 C 10.4257 1.4482 0.0 0
M  V30 26 C 5.3281 -9.3537 0.0 0
M  V30 27 C 9.5596 1.9482 0.0 0
M  V30 28 C 4.3916 -9.003 0.0 0
M  V30 29 O 9.9864 2.8526 0.0 0
M  V30 30 C 8.6231 2.2989 0.0 0
M  V30 31 C 3.5255 -8.503 0.0 0
M  V30 32 O 8.8952 3.2612 0.0 0
M  V30 33 C 7.6417 2.4906 0.0 0
M  V30 34 C 2.7536 -7.8673 0.0 0
M  V30 35 C 6.6421 2.5181 0.0 0
M  V30 36 C 2.0969 -7.1132 0.0 0
M  V30 37 O 6.587 3.5166 0.0 0
M  V30 38 C 5.6515 2.3808 0.0 0
M  V30 39 C 1.5732 -6.2613 0.0 0
M  V30 40 C 4.6971 2.0823 0.0 0
M  V30 41 C 1.1969 -5.3348 0.0 0
M  V30 42 O 4.3208 3.0088 0.0 0
M  V30 43 C 3.8049 1.6307 0.0 0
M  V30 44 C 0.9782 -4.359 0.0 0
M  V30 45 C 3.2812 2.4827 0.0 0
M  V30 46 C 2.9991 1.0385 0.0 0
M  V30 47 C 0.9231 -3.3605 0.0 0
M  V30 48 O 3.7571 3.3621 0.0 0
M  V30 49 O 2.2816 2.4551 0.0 0
M  V30 50 O 2.3424 1.7926 0.0 0
M  V30 51 C 2.3018 0.3217 0.0 0
M  V30 52 C 1.0331 -2.3666 0.0 0
M  V30 53 C 1.732 -0.5 0.0 0
M  V30 54 C 1.3052 -1.4043 0.0 0
M  V30 55 O 0.866 0.0 0.0 0
M  V30 56 C 0.0 -0.5 0.0 0
M  V30 57 O 0.0 -1.4999 0.0 0
M  V30 58 C -0.866 0.0 0.0 0 CFG=1
M  V30 59 C -0.866 -2.0 0.0 0 CFG=1
M  V30 60 O -0.866 0.9999 0.0 0
M  V30 61 C -1.732 -0.5 0.0 0 CFG=2
M  V30 62 C -1.732 -1.5 0.0 0 CFG=2
M  V30 63 C -0.866 -3.0 0.0 0
M  V30 64 N -2.598 0.0 0.0 0
M  V30 65 O -2.598 -2.0 0.0 0
M  V30 END ATOM
M  V30 BEGIN BOND
M  V30 1 2 1 2
M  V30 2 1 2 3
M  V30 3 1 2 4
M  V30 4 1 3 5
M  V30 5 1 4 6
M  V30 6 1 5 7
M  V30 7 1 5 8
M  V30 8 1 6 9
M  V30 9 1 6 10
M  V30 10 1 7 11
M  V30 11 1 7 12
M  V30 12 1 10 13
M  V30 13 1 11 14
M  V30 14 1 11 15
M  V30 15 1 13 16
M  V30 16 1 13 17
M  V30 17 1 15 18
M  V30 18 1 15 19
M  V30 19 1 17 20
M  V30 20 2 18 21
M  V30 21 1 20 22
M  V30 22 1 20 23
M  V30 23 1 21 24
M  V30 24 1 23 25
M  V30 25 2 24 26
M  V30 26 1 25 27
M  V30 27 1 26 28
M  V30 28 1 27 29
M  V30 29 1 27 30
M  V30 30 1 28 31
M  V30 31 1 30 32
M  V30 32 1 30 33
M  V30 33 1 31 34
M  V30 34 1 33 35
M  V30 35 2 34 36
M  V30 36 2 35 37
M  V30 37 1 35 38
M  V30 38 1 36 39
M  V30 39 1 38 40
M  V30 40 2 39 41
M  V30 41 1 40 42
M  V30 42 1 40 43
M  V30 43 1 41 44
M  V30 44 1 43 45
M  V30 45 1 43 46
M  V30 46 2 44 47
M  V30 47 2 45 48
M  V30 48 1 45 49
M  V30 49 1 46 50
M  V30 50 1 46 51
M  V30 51 1 47 52
M  V30 52 1 51 53
M  V30 53 2 52 54
M  V30 54 1 53 55
M  V30 55 1 55 56
M  V30 56 1 56 57
M  V30 57 1 56 58
M  V30 58 1 57 59
M  V30 59 1 58 60 CFG=3
M  V30 60 1 58 61
M  V30 61 1 59 62
M  V30 62 1 59 63 CFG=3
M  V30 63 1 61 64 CFG=3
M  V30 64 1 62 65 CFG=1
M  V30 65 1 53 54
M  V30 66 1 61 62
M  V30 END BOND
M  V30 BEGIN COLLECTION
M  V30 MDLV30/STEABS ATOMS=(4 58 59 61 62)
M  V30 END COLLECTION
M  V30 END CTAB
M  END
>  <Drug Name>
Nystatin

>  <Carbon Count>
47

>  <SMILES String>
O=C(O)C1C(O)C[C@](CC(O)C(O)CCC(O)CC(O)CC(C2)O)(O)OC1CC(O[C@@H]3[C@@H](O)[C@@H](N)[C@H](O)[C@@H](C)O3)/C=C/C=C/C=C/C=C/CC/C=C/C=C/[C@H](C)[C@@H](O)[C@@H](C)[C@H](C)OC2=O

$$$$
Pibrentasvir
Actelion Java MolfileCreator 2.0

  0  0  0  0  0  0              0 V3000
M  V30 BEGIN CTAB
M  V30 COUNTS 80 89 0 0 0
M  V30 BEGIN ATOM
M  V30 1 F 15.0571 -10.6827 0.0 0
M  V30 2 C 13.6867 -10.0726 0.0 0
M  V30 3 C 13.5299 -8.5808 0.0 0
M  V30 4 C 12.4732 -10.9543 0.0 0
M  V30 5 N 14.7435 -7.6992 0.0 0
M  V30 6 C 12.1596 -7.9707 0.0 0
M  V30 7 C 11.1029 -10.3442 0.0 0
M  V30 8 C 16.1138 -8.3093 0.0 0
M  V30 9 C 14.5867 -6.2074 0.0 0
M  V30 10 F 12.0028 -6.479 0.0 0
M  V30 11 C 10.9461 -8.8524 0.0 0
M  V30 12 N 9.8894 -11.2259 0.0 0
M  V30 13 C 17.3273 -7.4276 0.0 0
M  V30 14 C 15.8002 -5.3257 0.0 0
M  V30 15 C 8.4628 -10.7624 0.0 0 CFG=2
M  V30 16 C 9.8894 -12.7259 0.0 0 CFG=2
M  V30 17 C 17.1705 -5.9358 0.0 0
M  V30 18 C 7.9993 -9.3358 0.0 0
M  V30 19 C 7.5811 -11.9759 0.0 0
M  V30 20 C 11.1029 -13.6076 0.0 0
M  V30 21 C 8.4628 -13.1894 0.0 0
M  V30 22 C 18.384 -5.0541 0.0 0
M  V30 23 C 6.532 -9.0239 0.0 0
M  V30 24 C 9.003 -8.2211 0.0 0
M  V30 25 C 10.9461 -15.0993 0.0 0
M  V30 26 C 12.4732 -12.9975 0.0 0
M  V30 27 C 19.7544 -5.6642 0.0 0
M  V30 28 C 18.2273 -3.5624 0.0 0
M  V30 29 F 5.5283 -10.1386 0.0 0
M  V30 30 C 6.0685 -7.5973 0.0 0
M  V30 31 C 8.5394 -6.7945 0.0 0
M  V30 32 F 9.5758 -15.7094 0.0 0
M  V30 33 C 12.1596 -15.981 0.0 0
M  V30 34 C 13.6867 -13.8791 0.0 0
M  V30 35 C 20.9679 -4.7826 0.0 0
M  V30 36 C 19.4408 -2.6807 0.0 0
M  V30 37 C 7.0722 -6.4826 0.0 0
M  V30 38 N 9.2894 -5.4954 0.0 0
M  V30 39 C 13.5299 -15.3709 0.0 0
M  V30 40 N 15.154 -13.5673 0.0 0
M  V30 41 C 20.8111 -3.2908 0.0 0
M  V30 42 N 6.9154 -4.9908 0.0 0
M  V30 43 C 8.2857 -4.3807 0.0 0
M  V30 44 N 14.9003 -15.981 0.0 0
M  V30 45 C 15.904 -14.8663 0.0 0
M  V30 46 F 22.0246 -2.4091 0.0 0
M  V30 47 C 8.5976 -2.9135 0.0 0 CFG=2
M  V30 48 C 17.3957 -15.0231 0.0 0 CFG=2
M  V30 49 N 9.9679 -2.3034 0.0 0
M  V30 50 C 7.5939 -1.7988 0.0 0
M  V30 51 N 18.1457 -16.3221 0.0 0
M  V30 52 C 18.3994 -13.9084 0.0 0
M  V30 53 C 11.267 -3.0534 0.0 0
M  V30 54 C 9.8111 -0.8116 0.0 0
M  V30 55 C 8.3439 -0.4997 0.0 0
M  V30 56 C 17.5356 -17.6924 0.0 0
M  V30 57 C 19.613 -16.0103 0.0 0
M  V30 58 C 19.7698 -14.5185 0.0 0
M  V30 59 O 11.267 -4.5534 0.0 0
M  V30 60 C 12.566 -2.3034 0.0 0 CFG=2
M  V30 61 O 16.0439 -17.8492 0.0 0
M  V30 62 C 18.4173 -18.906 0.0 0 CFG=2
M  V30 63 N 12.566 -0.8034 0.0 0
M  V30 64 C 13.865 -3.0534 0.0 0 CFG=1
M  V30 65 N 17.8072 -20.2763 0.0 0
M  V30 66 C 19.9091 -18.7492 0.0 0 CFG=1
M  V30 67 C 13.865 -0.0534 0.0 0
M  V30 68 O 13.865 -4.5534 0.0 0
M  V30 69 C 15.1641 -2.3034 0.0 0
M  V30 70 C 16.3154 -20.4331 0.0 0
M  V30 71 O 20.5192 -17.3789 0.0 0
M  V30 72 C 20.7908 -19.9627 0.0 0
M  V30 73 O 15.1641 -0.8034 0.0 0
M  V30 74 O 13.865 1.4465 0.0 0
M  V30 75 C 12.566 -5.3034 0.0 0
M  V30 76 O 15.4338 -19.2196 0.0 0
M  V30 77 O 15.7053 -21.8034 0.0 0
M  V30 78 C 22.011 -17.2221 0.0 0
M  V30 79 C 15.1641 2.1965 0.0 0
M  V30 80 C 14.2135 -21.9602 0.0 0
M  V30 END ATOM
M  V30 BEGIN BOND
M  V30 1 1 1 2
M  V30 2 2 2 3
M  V30 3 1 2 4
M  V30 4 1 3 5
M  V30 5 1 3 6
M  V30 6 2 4 7
M  V30 7 1 5 8
M  V30 8 1 5 9
M  V30 9 1 6 10
M  V30 10 2 6 11
M  V30 11 1 7 12
M  V30 12 1 8 13
M  V30 13 1 9 14
M  V30 14 1 12 15
M  V30 15 1 12 16
M  V30 16 1 13 17
M  V30 17 1 15 18 CFG=1
M  V30 18 1 15 19
M  V30 19 1 16 20 CFG=3
M  V30 20 1 16 21
M  V30 21 1 17 22
M  V30 22 2 18 23
M  V30 23 1 18 24
M  V30 24 2 20 25
M  V30 25 1 20 26
M  V30 26 2 22 27
M  V30 27 1 22 28
M  V30 28 1 23 29
M  V30 29 1 23 30
M  V30 30 2 24 31
M  V30 31 1 25 32
M  V30 32 1 25 33
M  V30 33 2 26 34
M  V30 34 1 27 35
M  V30 35 2 28 36
M  V30 36 2 30 37
M  V30 37 1 31 38
M  V30 38 2 33 39
M  V30 39 1 34 40
M  V30 40 2 35 41
M  V30 41 1 37 42
M  V30 42 2 38 43
M  V30 43 1 39 44
M  V30 44 2 40 45
M  V30 45 1 41 46
M  V30 46 1 47 43 CFG=1
M  V30 47 1 48 45 CFG=1
M  V30 48 1 47 49
M  V30 49 1 47 50
M  V30 50 1 48 51
M  V30 51 1 48 52
M  V30 52 1 49 53
M  V30 53 1 49 54
M  V30 54 1 50 55
M  V30 55 1 51 56
M  V30 56 1 51 57
M  V30 57 1 52 58
M  V30 58 2 53 59
M  V30 59 1 53 60
M  V30 60 2 56 61
M  V30 61 1 56 62
M  V30 62 1 60 63 CFG=3
M  V30 63 1 60 64
M  V30 64 1 62 65 CFG=1
M  V30 65 1 62 66
M  V30 66 1 63 67
M  V30 67 1 64 68
M  V30 68 1 64 69 CFG=3
M  V30 69 1 65 70
M  V30 70 1 66 71
M  V30 71 1 66 72 CFG=1
M  V30 72 2 67 73
M  V30 73 1 67 74
M  V30 74 1 68 75
M  V30 75 2 70 76
M  V30 76 1 70 77
M  V30 77 1 71 78
M  V30 78 1 74 79
M  V30 79 1 77 80
M  V30 80 1 7 11
M  V30 81 1 14 17
M  V30 82 1 19 21
M  V30 83 1 31 37
M  V30 84 1 34 39
M  V30 85 1 36 41
M  V30 86 1 42 43
M  V30 87 1 44 45
M  V30 88 1 54 55
M  V30 89 1 57 58
M  V30 END BOND
M  V30 BEGIN COLLECTION
M  V30 MDLV30/STERAC1 ATOMS=(8 15 16 47 48 60 62 64 66)
M  V30 END COLLECTION
M  V30 END CTAB
M  END
>  <Drug Name>
Pibrentasvir

>  <Carbon Count>
57

>  <SMILES String>
C[C@H]([C@@H](C(=O)N1CCC[C@H]1c2[nH]c3cc(c(cc3n2)[C@H]4CC[C@@H](N4c5cc(c(c(c5)F)N6CCC(CC6)c7ccc(cc7)F)F)c8cc9c(cc8F)[nH]c(n9)[C@@H]1CCCN1C(=O)[C@H]([C@@H](C)OC)NC(=O)OC)F)NC(=O)OC)OC

$$$$
Colistin
Actelion Java MolfileCreator 2.0

  0  0  0  0  0  0              0 V3000
M  V30 BEGIN CTAB
M  V30 COUNTS 81 81 0 0 0
M  V30 BEGIN ATOM
M  V30 1 O 18.115 -2.8311 0.0 0
M  V30 2 C 18.0695 -1.8321 0.0 0
M  V30 3 N 17.0737 -1.7412 0.0 0
M  V30 4 C 19.053 -1.651 0.0 0
M  V30 5 C 16.1393 -1.385 0.0 0
M  V30 6 N 19.9511 -1.2113 0.0 0
M  V30 7 C 19.3663 -2.6007 0.0 0 CFG=2
M  V30 8 C 15.3356 -0.7898 0.0 0
M  V30 9 C 20.6973 -0.5455 0.0 0
M  V30 10 O 18.7006 -3.3468 0.0 0
M  V30 11 C 20.3454 -2.8041 0.0 0
M  V30 12 C 14.7224 0.0 0.0 0 CFG=2
M  V30 13 O 21.4584 -1.1941 0.0 0
M  V30 14 C 21.2362 0.2967 0.0 0 CFG=2
M  V30 15 N 13.8564 -0.5 0.0 0
M  V30 16 C 14.345 0.926 0.0 0
M  V30 17 N 21.5278 1.2533 0.0 0
M  V30 18 C 22.1441 -0.1223 0.0 0
M  V30 19 C 13.8564 -1.5 0.0 0
M  V30 20 O 13.3762 0.6782 0.0 0
M  V30 21 N 14.2314 1.9195 0.0 0
M  V30 22 C 21.5506 2.253 0.0 0
M  V30 23 C 22.9611 0.4542 0.0 0
M  V30 24 O 14.7224 -2.0 0.0 0
M  V30 25 C 12.9903 -1.9999 0.0 0 CFG=1
M  V30 26 C 14.3901 2.9069 0.0 0 CFG=2
M  V30 27 O 22.5441 2.3666 0.0 0
M  V30 28 C 21.3028 3.2218 0.0 0 CFG=1
M  V30 29 N 23.869 0.0351 0.0 0
M  V30 30 N 12.9903 -2.9999 0.0 0
M  V30 31 C 12.1243 -1.4999 0.0 0
M  V30 32 C 14.8092 3.8148 0.0 0
M  V30 33 C 13.4335 3.1985 0.0 0
M  V30 34 N 20.8028 4.0878 0.0 0
M  V30 35 C 22.2288 3.5992 0.0 0
M  V30 36 C 12.1243 -3.4999 0.0 0
M  V30 37 C 11.2583 -1.9999 0.0 0
M  V30 38 O 13.9669 4.3537 0.0 0
M  V30 39 N 15.4578 4.5759 0.0 0
M  V30 40 C 12.7027 2.5159 0.0 0
M  V30 41 C 20.0877 4.7868 0.0 0
M  V30 42 C 22.365 4.5899 0.0 0
M  V30 43 O 11.2583 -2.9999 0.0 0
M  V30 44 C 12.1243 -4.4999 0.0 0 CFG=1
M  V30 45 N 10.3923 -1.4999 0.0 0
M  V30 46 C 16.2877 5.1338 0.0 0
M  V30 47 N 11.7462 2.8076 0.0 0
M  V30 48 O 20.6828 5.5905 0.0 0
M  V30 49 C 19.2105 5.267 0.0 0 CFG=2
M  V30 50 N 23.2911 4.9673 0.0 0
M  V30 51 N 11.2583 -4.9999 0.0 0
M  V30 52 C 12.9903 -4.9999 0.0 0 CFG=2
M  V30 53 C 17.2373 5.4472 0.0 0
M  V30 54 C 15.848 6.032 0.0 0
M  V30 55 N 18.2363 5.4927 0.0 0
M  V30 56 C 19.5668 6.2014 0.0 0
M  V30 57 C 11.2583 -5.9999 0.0 0
M  V30 58 O 13.8564 -4.4999 0.0 0
M  V30 59 C 12.9903 -5.9999 0.0 0
M  V30 60 O 17.0562 6.4306 0.0 0
M  V30 61 C 14.8503 6.1002 0.0 0
M  V30 62 C 18.9357 6.9771 0.0 0
M  V30 63 O 12.1243 -6.4999 0.0 0
M  V30 64 C 10.3923 -6.4999 0.0 0 CFG=1
M  V30 65 C 14.2924 5.2703 0.0 0
M  V30 66 C 14.4106 6.9983 0.0 0
M  V30 67 C 17.9483 6.8184 0.0 0
M  V30 68 C 19.2919 7.9115 0.0 0
M  V30 69 N 10.3923 -7.4999 0.0 0
M  V30 70 C 9.5262 -5.9999 0.0 0
M  V30 71 C 9.5262 -7.9999 0.0 0
M  V30 72 C 8.6602 -6.4999 0.0 0
M  V30 73 O 8.6602 -7.4999 0.0 0
M  V30 74 C 9.5262 -8.9999 0.0 0
M  V30 75 N 7.7942 -5.9999 0.0 0
M  V30 76 C 8.6602 -9.4999 0.0 0
M  V30 77 C 8.6602 -10.4999 0.0 0
M  V30 78 C 7.7942 -10.9999 0.0 0
M  V30 79 C 7.7942 -11.9999 0.0 0
M  V30 80 C 6.9282 -10.4999 0.0 0
M  V30 81 C 6.9282 -12.4999 0.0 0
M  V30 END ATOM
M  V30 BEGIN BOND
M  V30 1 1 1 2
M  V30 2 2 2 3 CFG=2
M  V30 3 1 2 4
M  V30 4 1 3 5
M  V30 5 1 4 6
M  V30 6 1 4 7
M  V30 7 1 5 8
M  V30 8 2 6 9 CFG=2
M  V30 9 1 7 10 CFG=1
M  V30 10 1 7 11
M  V30 11 1 8 12
M  V30 12 1 9 13
M  V30 13 1 9 14
M  V30 14 1 12 15 CFG=3
M  V30 15 1 12 16
M  V30 16 1 14 17
M  V30 17 1 14 18 CFG=3
M  V30 18 2 15 19 CFG=2
M  V30 19 1 16 20
M  V30 20 2 16 21 CFG=2
M  V30 21 2 17 22 CFG=2
M  V30 22 1 18 23
M  V30 23 1 19 24
M  V30 24 1 19 25
M  V30 25 1 21 26
M  V30 26 1 22 27
M  V30 27 1 22 28
M  V30 28 1 23 29
M  V30 29 1 25 30 CFG=1
M  V30 30 1 25 31
M  V30 31 1 26 32
M  V30 32 1 26 33 CFG=1
M  V30 33 1 28 34
M  V30 34 1 28 35 CFG=1
M  V30 35 2 30 36 CFG=2
M  V30 36 1 31 37
M  V30 37 1 32 38
M  V30 38 2 32 39 CFG=2
M  V30 39 1 33 40
M  V30 40 2 34 41 CFG=2
M  V30 41 1 35 42
M  V30 42 1 36 43
M  V30 43 1 36 44
M  V30 44 1 37 45
M  V30 45 1 39 46
M  V30 46 1 40 47
M  V30 47 1 41 48
M  V30 48 1 41 49
M  V30 49 1 42 50
M  V30 50 1 44 51 CFG=3
M  V30 51 1 44 52
M  V30 52 1 46 53
M  V30 53 1 46 54
M  V30 54 1 49 55
M  V30 55 1 49 56 CFG=3
M  V30 56 2 51 57 CFG=2
M  V30 57 1 52 58 CFG=3
M  V30 58 1 52 59
M  V30 59 1 53 60
M  V30 60 1 54 61
M  V30 61 1 56 62
M  V30 62 1 57 63
M  V30 63 1 57 64
M  V30 64 1 61 65
M  V30 65 1 61 66
M  V30 66 1 62 67
M  V30 67 1 62 68
M  V30 68 1 64 69 CFG=1
M  V30 69 1 64 70
M  V30 70 2 69 71 CFG=2
M  V30 71 1 70 72
M  V30 72 1 71 73
M  V30 73 1 71 74
M  V30 74 1 72 75
M  V30 75 1 74 76
M  V30 76 1 76 77
M  V30 77 1 77 78
M  V30 78 1 78 79
M  V30 79 1 78 80
M  V30 80 1 79 81
M  V30 81 2 53 55 CFG=2
M  V30 END BOND
M  V30 BEGIN COLLECTION
M  V30 MDLV30/STERAC1 ATOMS=(10 7 12 14 25 26 28 44 49 52 64)
M  V30 END COLLECTION
M  V30 END CTAB
M  END
>  <Drug Name>
Colistin

>  <Carbon Count>
52

>  <SMILES String>
O=C(N[C@H](C(=O)N[C@H](C(=O)N[C@H](C(=O)N[C@@H]1C(=O)N[C@H](C(=O)N[C@@H](C(=O)N[C@H](C(=O)N[C@H](C(=O)N[C@H](C(=O)N[C@H](C(=O)NCC1)[C@H](O)C)CCN)CCN)CC(C)C)CC(C)C)CCN)CCN)[C@H](O)C)CCN)CCCC(C)CC

$$$$
Atorvastatin
Actelion Java MolfileCreator 2.0

  0  0  0  0  0  0              0 V3000
M  V30 BEGIN CTAB
M  V30 COUNTS 41 44 0 0 0
M  V30 BEGIN ATOM
M  V30 1 F 8.6733 3.8193 0.0 0
M  V30 2 C 8.4654 2.8411 0.0 0
M  V30 3 C 7.5144 2.5321 0.0 0
M  V30 4 C 9.2086 2.172 0.0 0
M  V30 5 C 7.3065 1.554 0.0 0
M  V30 6 C 9.0007 1.1939 0.0 0
M  V30 7 C 8.0496 0.8848 0.0 0
M  V30 8 C 7.8417 -0.0932 0.0 0
M  V30 9 N 6.9282 -0.5 0.0 0
M  V30 10 C 8.5108 -0.8364 0.0 0
M  V30 11 C 7.0327 -1.4945 0.0 0
M  V30 12 C 6.0621 0.0 0.0 0
M  V30 13 C 9.5054 -0.7318 0.0 0
M  V30 14 C 8.0108 -1.7024 0.0 0
M  V30 15 C 6.2895 -2.1636 0.0 0
M  V30 16 C 5.1961 -0.5 0.0 0
M  V30 17 C 10.0931 -1.5408 0.0 0
M  V30 18 C 9.9121 0.1816 0.0 0
M  V30 19 C 8.4176 -2.6159 0.0 0
M  V30 20 C 5.3385 -1.8546 0.0 0
M  V30 21 C 6.4974 -3.1418 0.0 0
M  V30 22 C 4.3301 0.0 0.0 0 CFG=1
M  V30 23 C 11.0877 -1.4363 0.0 0
M  V30 24 C 10.9066 0.2861 0.0 0
M  V30 25 O 9.4121 -2.7205 0.0 0
M  V30 26 N 7.8298 -3.4249 0.0 0
M  V30 27 O 4.3301 1.0 0.0 0
M  V30 28 C 3.4641 -0.5 0.0 0
M  V30 29 C 11.4944 -0.5228 0.0 0
M  V30 30 C 8.2365 -4.3385 0.0 0
M  V30 31 C 2.598 0.0 0.0 0 CFG=1
M  V30 32 C 7.6487 -5.1475 0.0 0
M  V30 33 C 9.231 -4.443 0.0 0
M  V30 34 O 2.598 1.0 0.0 0
M  V30 35 C 1.732 -0.5 0.0 0
M  V30 36 C 8.0555 -6.0611 0.0 0
M  V30 37 C 9.6378 -5.3566 0.0 0
M  V30 38 C 0.866 0.0 0.0 0
M  V30 39 C 9.05 -6.1656 0.0 0
M  V30 40 O 0.866 1.0 0.0 0
M  V30 41 O 0.0 -0.5 0.0 0
M  V30 END ATOM
M  V30 BEGIN BOND
M  V30 1 1 1 2
M  V30 2 2 2 3
M  V30 3 1 2 4
M  V30 4 1 3 5
M  V30 5 2 4 6
M  V30 6 2 5 7
M  V30 7 1 7 8
M  V30 8 1 8 9
M  V30 9 2 8 10
M  V30 10 1 9 11
M  V30 11 1 9 12
M  V30 12 1 10 13
M  V30 13 1 10 14
M  V30 14 1 11 15
M  V30 15 1 12 16
M  V30 16 2 13 17
M  V30 17 1 13 18
M  V30 18 1 14 19
M  V30 19 1 15 20
M  V30 20 1 15 21
M  V30 21 1 16 22
M  V30 22 1 17 23
M  V30 23 2 18 24
M  V30 24 2 19 25
M  V30 25 1 19 26
M  V30 26 1 22 27 CFG=3
M  V30 27 1 22 28
M  V30 28 2 23 29
M  V30 29 1 26 30
M  V30 30 1 28 31
M  V30 31 2 30 32
M  V30 32 1 30 33
M  V30 33 1 31 34 CFG=3
M  V30 34 1 31 35
M  V30 35 1 32 36
M  V30 36 2 33 37
M  V30 37 1 35 38
M  V30 38 2 36 39
M  V30 39 2 38 40
M  V30 40 1 38 41
M  V30 41 1 6 7
M  V30 42 2 11 14
M  V30 43 1 24 29
M  V30 44 1 37 39
M  V30 END BOND
M  V30 BEGIN COLLECTION
M  V30 MDLV30/STEABS ATOMS=(2 22 31)
M  V30 END COLLECTION
M  V30 END CTAB
M  END
>  <Drug Name>
Atorvastatin

>  <Carbon Count>
67

>  <SMILES String>
O=C(C[C@@H](C[C@@H](CCN1C(C2=CC=C(F)C=C2)=C(C(C(NC3=CC=CC=C3)=O)=C1C(C)C)C4=CC=CC=C4)O)O)[O-].O=C(C[C@@H](C[C@@H](CCN5C(C6=CC=C(F)C=C6)=C(C(C(NC7=CC=CC=C7)=O)=C5C(C)C)C8=CC=CC=C8)O)O)[O-].[Ca+2]

$$$$
Polymyxin B
Actelion Java MolfileCreator 2.0

  0  0  0  0  0  0              0 V3000
M  V30 BEGIN CTAB
M  V30 COUNTS 85 86 0 0 0
M  V30 BEGIN ATOM
M  V30 1 O 14.8329 -4.8537 0.0 0
M  V30 2 C 15.6753 -4.3148 0.0 0
M  V30 3 N 15.2561 -3.4069 0.0 0
M  V30 4 C 16.3238 -5.0759 0.0 0
M  V30 5 C 15.0974 -2.4195 0.0 0
M  V30 6 N 17.1537 -5.6338 0.0 0
M  V30 7 C 15.6581 -5.8221 0.0 0
M  V30 8 C 15.211 -1.426 0.0 0
M  V30 9 C 18.1034 -5.9472 0.0 0
M  V30 10 O 14.679 -5.6186 0.0 0
M  V30 11 C 15.9715 -6.7717 0.0 0
M  V30 12 C 15.5884 -0.5 0.0 0
M  V30 13 O 17.9223 -6.9306 0.0 0
M  V30 14 C 19.1023 -5.9927 0.0 0
M  V30 15 N 14.7224 0.0 0.0 0
M  V30 16 C 16.2017 0.2898 0.0 0
M  V30 17 N 20.0765 -5.767 0.0 0
M  V30 18 C 19.1933 -6.9885 0.0 0
M  V30 19 C 13.8564 -0.5 0.0 0
M  V30 20 O 15.5027 1.0049 0.0 0
M  V30 21 N 17.0053 0.885 0.0 0
M  V30 22 C 20.9537 -5.2868 0.0 0
M  V30 23 C 20.1012 -7.4077 0.0 0
M  V30 24 O 13.8564 -1.5 0.0 0
M  V30 25 C 12.9903 0.0 0.0 0
M  V30 26 C 17.9397 1.2412 0.0 0
M  V30 27 O 21.5488 -6.0905 0.0 0
M  V30 28 C 21.6688 -4.5878 0.0 0
M  V30 29 N 20.1921 -8.4036 0.0 0
M  V30 30 N 12.1243 -0.5 0.0 0
M  V30 31 C 12.9903 1.0 0.0 0
M  V30 32 C 18.9356 1.3321 0.0 0
M  V30 33 C 17.714 2.2154 0.0 0
M  V30 34 N 22.1688 -3.7218 0.0 0
M  V30 35 C 22.4587 -5.2011 0.0 0
M  V30 36 C 11.2583 0.0 0.0 0
M  V30 37 C 13.8564 1.5 0.0 0
M  V30 38 O 18.9811 2.3311 0.0 0
M  V30 39 N 19.919 1.151 0.0 0
M  V30 40 C 16.7575 2.507 0.0 0
M  V30 41 C 22.4166 -2.753 0.0 0
M  V30 42 C 23.3847 -4.8237 0.0 0
M  V30 43 O 11.2583 1.0 0.0 0
M  V30 44 C 10.3923 -0.5 0.0 0
M  V30 45 N 13.8564 2.5 0.0 0
M  V30 46 C 20.8171 0.7113 0.0 0
M  V30 47 N 16.5318 3.4812 0.0 0
M  V30 48 O 23.4102 -2.8666 0.0 0
M  V30 49 C 22.3939 -1.7533 0.0 0
M  V30 50 N 24.1746 -5.4369 0.0 0
M  V30 51 N 9.5262 0.0 0.0 0
M  V30 52 C 10.3923 -1.4999 0.0 0
M  V30 53 C 21.5633 0.0455 0.0 0
M  V30 54 C 21.3751 1.5412 0.0 0
M  V30 55 N 22.1022 -0.7967 0.0 0
M  V30 56 C 23.3812 -1.5946 0.0 0
M  V30 57 C 8.6602 -0.5 0.0 0
M  V30 58 O 9.5262 -1.9999 0.0 0
M  V30 59 C 11.2583 -1.9999 0.0 0
M  V30 60 O 22.3245 0.6941 0.0 0
M  V30 61 C 20.9353 2.4393 0.0 0
M  V30 62 C 23.7374 -0.6602 0.0 0
M  V30 63 O 8.6602 -1.4999 0.0 0
M  V30 64 C 7.7942 0.0 0.0 0
M  V30 65 C 21.4933 3.2692 0.0 0
M  V30 66 C 19.9377 2.5075 0.0 0
M  V30 67 C 23.1064 0.1154 0.0 0
M  V30 68 C 24.7248 -0.5015 0.0 0
M  V30 69 N 6.9282 -0.5 0.0 0
M  V30 70 C 7.7942 0.9999 0.0 0
M  V30 71 C 21.0535 4.1673 0.0 0
M  V30 72 C 19.4979 3.4057 0.0 0
M  V30 73 C 6.0621 0.0 0.0 0
M  V30 74 C 8.6602 1.5 0.0 0
M  V30 75 C 20.0559 4.2355 0.0 0
M  V30 76 O 6.0621 0.9999 0.0 0
M  V30 77 C 5.1961 -0.5 0.0 0
M  V30 78 N 8.6602 2.5 0.0 0
M  V30 79 C 4.3301 0.0 0.0 0
M  V30 80 C 3.4641 -0.5 0.0 0
M  V30 81 C 2.598 0.0 0.0 0
M  V30 82 C 1.732 -0.5 0.0 0
M  V30 83 C 0.866 0.0 0.0 0
M  V30 84 C 1.732 -1.5 0.0 0
M  V30 85 C 0.0 -0.5 0.0 0
M  V30 END ATOM
M  V30 BEGIN BOND
M  V30 1 2 1 2
M  V30 2 1 2 3
M  V30 3 1 2 4
M  V30 4 1 3 5
M  V30 5 1 4 6
M  V30 6 1 4 7
M  V30 7 1 5 8
M  V30 8 1 6 9
M  V30 9 1 7 10
M  V30 10 1 7 11
M  V30 11 1 8 12
M  V30 12 2 9 13
M  V30 13 1 9 14
M  V30 14 1 12 15
M  V30 15 1 12 16
M  V30 16 1 14 17
M  V30 17 1 14 18
M  V30 18 1 15 19
M  V30 19 2 16 20
M  V30 20 1 16 21
M  V30 21 1 17 22
M  V30 22 1 18 23
M  V30 23 2 19 24
M  V30 24 1 19 25
M  V30 25 1 21 26
M  V30 26 2 22 27
M  V30 27 1 22 28
M  V30 28 1 23 29
M  V30 29 1 25 30
M  V30 30 1 25 31
M  V30 31 1 26 32
M  V30 32 1 26 33
M  V30 33 1 28 34
M  V30 34 1 28 35
M  V30 35 1 30 36
M  V30 36 1 31 37
M  V30 37 2 32 38
M  V30 38 1 32 39
M  V30 39 1 33 40
M  V30 40 1 34 41
M  V30 41 1 35 42
M  V30 42 2 36 43
M  V30 43 1 36 44
M  V30 44 1 37 45
M  V30 45 1 39 46
M  V30 46 1 40 47
M  V30 47 2 41 48
M  V30 48 1 41 49
M  V30 49 1 42 50
M  V30 50 1 44 51
M  V30 51 1 44 52
M  V30 52 1 46 53
M  V30 53 1 46 54
M  V30 54 1 49 55
M  V30 55 1 49 56
M  V30 56 1 51 57
M  V30 57 1 52 58
M  V30 58 1 52 59
M  V30 59 2 53 60
M  V30 60 1 54 61
M  V30 61 1 56 62
M  V30 62 2 57 63
M  V30 63 1 57 64
M  V30 64 2 61 65
M  V30 65 1 61 66
M  V30 66 1 62 67
M  V30 67 1 62 68
M  V30 68 1 64 69
M  V30 69 1 64 70
M  V30 70 1 65 71
M  V30 71 2 66 72
M  V30 72 1 69 73
M  V30 73 1 70 74
M  V30 74 2 71 75
M  V30 75 2 73 76
M  V30 76 1 73 77
M  V30 77 1 74 78
M  V30 78 1 77 79
M  V30 79 1 79 80
M  V30 80 1 80 81
M  V30 81 1 81 82
M  V30 82 1 82 83
M  V30 83 1 82 84
M  V30 84 1 83 85
M  V30 85 1 53 55
M  V30 86 1 72 75
M  V30 END BOND
M  V30 END CTAB
M  END
>  <Drug Name>
Polymyxin B

>  <Carbon Count>
56

>  <SMILES String>
CCC(C)CCCCC(NC(CCN)C(NC(C(O)C)C(NC(CCN)C(NC1C(NC(CCN)C(NC(CC2=CC=CC=C2)C(NC(CC(C)C)C(NC(CCN)C(NC(CCN)C(NC(C(O)C)C(NCC1)=O)=O)=O)=O)=O)=O)=O)=O)=O)=O)=O

$$$$
Dactinomycin
Actelion Java MolfileCreator 2.0

  0  0  0  0  0  0              0 V3000
M  V30 BEGIN CTAB
M  V30 COUNTS 90 96 0 0 0
M  V30 BEGIN ATOM
M  V30 1 O 0.0 4.4999 0.0 0
M  V30 2 C 0.866 4.0 0.0 0
M  V30 3 O 0.866 3.0 0.0 0
M  V30 4 C 1.732 4.5 0.0 0 CFG=1
M  V30 5 C 0.0 2.4999 0.0 0 CFG=1
M  V30 6 N 2.598 4.0 0.0 0
M  V30 7 C 1.732 5.5 0.0 0
M  V30 8 C 0.0 1.4999 0.0 0 CFG=2
M  V30 9 C -0.866 2.9999 0.0 0
M  V30 10 C 2.598 3.0 0.0 0
M  V30 11 C 3.4641 4.5 0.0 0
M  V30 12 C 2.598 6.0 0.0 0
M  V30 13 C 0.866 6.0 0.0 0
M  V30 14 N 0.6623 1.0186 0.0 0
M  V30 15 C -0.6164 1.0002 0.0 0
M  V30 16 O 1.732 2.5 0.0 0
M  V30 17 C 3.4641 2.5 0.0 0
M  V30 18 C 0.6585 0.0726 0.0 0
M  V30 19 O -1.732 1.4999 0.0 0
M  V30 20 N -0.8273 -0.2177 0.0 0
M  V30 21 N 3.4641 1.5 0.0 0
M  V30 22 O 1.5387 -0.6346 0.0 0
M  V30 23 C -0.0537 -0.3888 0.0 0
M  V30 24 C 0.2156 -0.5931 0.0 0 CFG=1
M  V30 25 C 2.598 1.0 0.0 0
M  V30 26 C 4.3301 1.0 0.0 0
M  V30 27 C -0.9828 0.0867 0.0 0
M  V30 28 C -0.1336 -1.4538 0.0 0
M  V30 29 C 0.9987 0.0245 0.0 0
M  V30 30 C 0.2126 -1.4894 0.0 0
M  V30 31 O 1.732 1.5 0.0 0
M  V30 32 C 2.598 0.0 0.0 0 CFG=1
M  V30 33 N -0.867 1.2279 0.0 0
M  V30 34 C -1.732 -0.4999 0.0 0
M  V30 35 N 0.7874 -2.1788 0.0 0
M  V30 36 C -0.9638 -1.9165 0.0 0
M  V30 37 O 0.9778 1.2236 0.0 0
M  V30 38 N 1.8405 -0.4244 0.0 0
M  V30 39 C -0.6812 -2.1576 0.0 0
M  V30 40 C 1.1158 -1.9903 0.0 0
M  V30 41 C 3.3412 -0.6691 0.0 0
M  V30 42 O -2.598 0.0 0.0 0
M  V30 43 C -1.732 -1.4999 0.0 0
M  V30 44 C 0.866 -3.0 0.0 0
M  V30 45 O -0.866 -2.9999 0.0 0
M  V30 46 C 1.9399 -1.4781 0.0 0
M  V30 47 C 2.9344 -1.5826 0.0 0
M  V30 48 C -2.598 -1.9999 0.0 0
M  V30 49 C 0.0 -3.4999 0.0 0
M  V30 50 C 1.732 -3.5 0.0 0
M  V30 51 C 0.0 -4.5 0.0 0
M  V30 52 C 2.598 -3.0 0.0 0
M  V30 53 C 1.732 -4.5 0.0 0
M  V30 54 C 0.866 -5.0 0.0 0
M  V30 55 C -0.866 -4.9999 0.0 0
M  V30 56 O 2.5954 -2.0247 0.0 0
M  V30 57 N 3.4641 -3.5 0.0 0
M  V30 58 C 4.3301 -3.0 0.0 0 CFG=2
M  V30 59 C 5.1961 -3.4999 0.0 0
M  V30 60 C 4.3301 -1.9999 0.0 0 CFG=2
M  V30 61 O 5.8121 -2.9999 0.0 0
M  V30 62 N 5.1961 -4.4999 0.0 0
M  V30 63 O 5.1961 -1.4999 0.0 0
M  V30 64 C 3.4868 -1.5101 0.0 0
M  V30 65 C 6.0621 -4.9999 0.0 0 CFG=1
M  V30 66 C 6.0621 -2.0 0.0 0
M  V30 67 C 6.0621 -6.0 0.0 0
M  V30 68 C 7.0095 -4.3184 0.0 0
M  V30 69 O 6.1871 -2.9999 0.0 0
M  V30 70 C 6.9282 -1.5 0.0 0 CFG=1
M  V30 71 O 5.1961 -6.5 0.0 0
M  V30 72 N 6.9282 -6.5 0.0 0
M  V30 73 C 6.6782 -3.4999 0.0 0
M  V30 74 C 7.721 -4.7924 0.0 0
M  V30 75 N 7.7942 -2.0 0.0 0
M  V30 76 C 6.9282 -0.5 0.0 0
M  V30 77 C 7.7942 -5.9999 0.0 0 CFG=2
M  V30 78 C 7.1361 -7.4781 0.0 0
M  V30 79 C 7.7942 -2.9999 0.0 0
M  V30 80 C 8.6602 -1.4999 0.0 0
M  V30 81 C 6.0621 0.0 0.0 0
M  V30 82 C 7.7942 0.0 0.0 0
M  V30 83 C 7.8407 -5.132 0.0 0
M  V30 84 C 8.5373 -6.6691 0.0 0
M  V30 85 C 8.1306 -7.5826 0.0 0
M  V30 86 O 7.053 -3.4687 0.0 0
M  V30 87 C 8.6602 -3.4999 0.0 0
M  V30 88 O 6.6782 -4.4999 0.0 0
M  V30 89 N 8.6602 -4.4999 0.0 0
M  V30 90 C 9.5262 -4.9999 0.0 0
M  V30 END ATOM
M  V30 BEGIN BOND
M  V30 1 2 1 2
M  V30 2 1 2 3
M  V30 3 1 2 4
M  V30 4 1 3 5
M  V30 5 1 4 6
M  V30 6 1 4 7 CFG=3
M  V30 7 1 5 8
M  V30 8 1 5 9 CFG=1
M  V30 9 1 6 10
M  V30 10 1 6 11
M  V30 11 1 7 12
M  V30 12 1 7 13
M  V30 13 1 8 14 CFG=3
M  V30 14 1 8 15
M  V30 15 2 10 16
M  V30 16 1 10 17
M  V30 17 1 14 18
M  V30 18 2 15 19
M  V30 19 1 15 20
M  V30 20 1 17 21
M  V30 21 2 18 22
M  V30 22 1 18 23
M  V30 23 1 20 24
M  V30 24 1 21 25
M  V30 25 1 21 26
M  V30 26 2 23 27
M  V30 27 1 23 28
M  V30 28 1 24 29
M  V30 29 1 24 30 CFG=1
M  V30 30 2 25 31
M  V30 31 1 25 32
M  V30 32 1 27 33
M  V30 33 1 27 34
M  V30 34 2 28 35
M  V30 35 1 28 36
M  V30 36 2 29 37
M  V30 37 1 29 38
M  V30 38 1 30 39
M  V30 39 1 30 40
M  V30 40 1 32 41
M  V30 41 2 34 42
M  V30 42 1 34 43
M  V30 43 1 35 44
M  V30 44 1 36 45
M  V30 45 1 38 46
M  V30 46 1 41 47
M  V30 47 1 43 48
M  V30 48 2 44 49
M  V30 49 1 44 50
M  V30 50 1 49 51
M  V30 51 1 50 52
M  V30 52 2 50 53
M  V30 53 2 51 54
M  V30 54 1 51 55
M  V30 55 2 52 56
M  V30 56 1 52 57
M  V30 57 1 58 57 CFG=1
M  V30 58 1 58 59
M  V30 59 1 58 60
M  V30 60 2 59 61
M  V30 61 1 59 62
M  V30 62 1 60 63
M  V30 63 1 60 64 CFG=1
M  V30 64 1 62 65
M  V30 65 1 63 66
M  V30 66 1 65 67
M  V30 67 1 65 68 CFG=3
M  V30 68 2 66 69
M  V30 69 1 66 70
M  V30 70 2 67 71
M  V30 71 1 67 72
M  V30 72 1 68 73
M  V30 73 1 68 74
M  V30 74 1 70 75
M  V30 75 1 70 76 CFG=3
M  V30 76 1 77 72 CFG=3
M  V30 77 1 72 78
M  V30 78 1 75 79
M  V30 79 1 75 80
M  V30 80 1 76 81
M  V30 81 1 76 82
M  V30 82 1 77 83
M  V30 83 1 77 84
M  V30 84 1 78 85
M  V30 85 2 79 86
M  V30 86 1 79 87
M  V30 87 2 83 88
M  V30 88 1 83 89
M  V30 89 1 89 90
M  V30 90 1 32 38 CFG=3
M  V30 91 2 36 43
M  V30 92 1 45 49
M  V30 93 1 46 47
M  V30 94 1 53 54
M  V30 95 1 84 85
M  V30 96 1 87 89
M  V30 END BOND
M  V30 BEGIN COLLECTION
M  V30 MDLV30/STERAC1 ATOMS=(10 4 5 8 24 32 58 60 65 70 77)
M  V30 END COLLECTION
M  V30 END CTAB
M  END
>  <Drug Name>
Dactinomycin

>  <Carbon Count>
62

>  <SMILES String>
CC1=C2OC3=C(C)C=CC(C(N[C@@H]([C@H](OC([C@@H](N(C(CN(C([C@H]4N5CCC4)=O)C)=O)C)C(C)C)=O)C)C(N[C@@H](C5=O)C(C)C)=O)=O)=C3N=C2C(C(N[C@H](C(N[C@@H](C6=O)C(C)C)=O)[C@@H](C)OC([C@H](C(C)C)N(C)C(CN(C([C@H]7N6CCC7)=O)C)=O)=O)=O)=C(N)C1=O

$$$$
Leuprolide Acetate
Actelion Java MolfileCreator 2.0

  0  0  0  0  0  0              0 V3000
M  V30 BEGIN CTAB
M  V30 COUNTS 91 95 0 0 0
M  V30 BEGIN ATOM
M  V30 1 O 16.8158 9.8072 0.0 0
M  V30 2 C 16.0068 9.2194 0.0 0
M  V30 3 N 15.0557 9.5284 0.0 0
M  V30 4 C 16.0068 8.2194 0.0 0
M  V30 5 C 14.4679 8.7194 0.0 0 CFG=1
M  V30 6 C 15.0557 7.9104 0.0 0
M  V30 7 C 13.4679 8.7194 0.0 0
M  V30 8 O 12.9679 9.5854 0.0 0
M  V30 9 N 12.9679 7.8534 0.0 0
M  V30 10 C 13.4679 6.9873 0.0 0 CFG=2
M  V30 11 C 12.9679 6.1213 0.0 0
M  V30 12 C 14.4679 6.9873 0.0 0
M  V30 13 O 13.4679 5.2553 0.0 0
M  V30 14 N 11.9679 6.1213 0.0 0
M  V30 15 C 14.9679 6.1213 0.0 0
M  V30 16 C 11.4679 5.2553 0.0 0 CFG=2
M  V30 17 N 15.9625 6.0168 0.0 0
M  V30 18 C 14.5612 5.2078 0.0 0
M  V30 19 C 11.9679 4.3893 0.0 0
M  V30 20 C 10.4679 5.2553 0.0 0
M  V30 21 C 16.1704 5.0386 0.0 0
M  V30 22 N 15.3043 4.5386 0.0 0
M  V30 23 O 12.9679 4.3893 0.0 0
M  V30 24 N 11.4679 3.5232 0.0 0
M  V30 25 C 9.9679 4.3893 0.0 0
M  V30 26 C 11.9679 2.6572 0.0 0 CFG=2
M  V30 27 C 8.9734 4.2847 0.0 0
M  V30 28 C 10.3747 3.4757 0.0 0
M  V30 29 C 11.4679 1.7912 0.0 0
M  V30 30 C 12.9679 2.6572 0.0 0
M  V30 31 C 8.7655 3.3066 0.0 0
M  V30 32 C 8.2303 4.9539 0.0 0
M  V30 33 N 9.6315 2.8066 0.0 0
M  V30 34 O 10.4679 1.7912 0.0 0
M  V30 35 N 11.9679 0.9252 0.0 0
M  V30 36 O 13.4679 3.5232 0.0 0
M  V30 37 C 7.8144 2.9976 0.0 0
M  V30 38 C 7.2792 4.6448 0.0 0
M  V30 39 C 11.4679 0.0591 0.0 0 CFG=2
M  V30 40 C 7.0713 3.6667 0.0 0
M  V30 41 C 11.9679 -0.8068 0.0 0
M  V30 42 C 10.4679 0.0591 0.0 0
M  V30 43 O 12.9679 -0.8068 0.0 0
M  V30 44 N 11.4679 -1.6728 0.0 0
M  V30 45 C 9.9679 -0.8068 0.0 0
M  V30 46 C 11.9679 -2.5388 0.0 0 CFG=1
M  V30 47 C 8.9679 -0.8068 0.0 0
M  V30 48 C 10.4679 -1.6728 0.0 0
M  V30 49 C 11.4679 -3.4049 0.0 0
M  V30 50 C 12.9679 -2.5388 0.0 0
M  V30 51 C 8.4679 -1.6728 0.0 0
M  V30 52 C 9.9679 -2.5388 0.0 0
M  V30 53 O 10.4679 -3.4049 0.0 0
M  V30 54 N 11.9679 -4.2709 0.0 0
M  V30 55 C 13.4679 -3.4049 0.0 0
M  V30 56 C 8.9679 -2.5388 0.0 0
M  V30 57 C 11.4679 -5.1369 0.0 0 CFG=2
M  V30 58 C 12.9679 -4.2709 0.0 0
M  V30 59 C 14.4679 -3.4049 0.0 0
M  V30 60 O 8.4679 -3.4049 0.0 0
M  V30 61 C 11.9679 -6.0029 0.0 0
M  V30 62 C 10.4679 -5.1369 0.0 0
M  V30 63 O 12.9679 -6.0029 0.0 0
M  V30 64 N 11.4679 -6.869 0.0 0
M  V30 65 C 9.9679 -6.0029 0.0 0
M  V30 66 C 11.9679 -7.735 0.0 0 CFG=2
M  V30 67 C 10.4679 -6.869 0.0 0
M  V30 68 C 8.9679 -6.0029 0.0 0
M  V30 69 C 12.9679 -7.735 0.0 0
M  V30 70 C 11.4679 -8.601 0.0 0
M  V30 71 O 13.4679 -6.869 0.0 0
M  V30 72 N 13.4679 -8.601 0.0 0
M  V30 73 C 11.9679 -9.467 0.0 0
M  V30 74 C 14.4625 -8.7055 0.0 0 CFG=2
M  V30 75 C 13.0612 -9.5146 0.0 0
M  V30 76 C 11.4679 -10.3331 0.0 0
M  V30 77 C 15.1316 -7.9624 0.0 0
M  V30 78 C 14.6704 -9.6837 0.0 0
M  V30 79 C 13.8043 -10.1837 0.0 0
M  V30 80 N 11.9679 -11.1991 0.0 0
M  V30 81 O 16.1097 -8.1703 0.0 0
M  V30 82 N 14.8226 -7.0113 0.0 0
M  V30 83 C 11.4679 -12.0651 0.0 0
M  V30 84 C 15.4917 -6.2682 0.0 0
M  V30 85 N 10.4679 -12.0651 0.0 0
M  V30 86 N 11.9679 -12.9311 0.0 0
M  V30 87 C 15.1827 -5.3171 0.0 0
M  V30 88 O 17.7679 -0.7316 0.0 0
M  V30 89 C 16.7679 -0.7316 0.0 0
M  V30 90 O 16.2679 0.1344 0.0 0
M  V30 91 C 16.2679 -1.5976 0.0 0
M  V30 END ATOM
M  V30 BEGIN BOND
M  V30 1 2 1 2
M  V30 2 1 2 3
M  V30 3 1 2 4
M  V30 4 1 3 5
M  V30 5 1 4 6
M  V30 6 1 5 7 CFG=1
M  V30 7 2 7 8
M  V30 8 1 7 9
M  V30 9 1 10 9 CFG=1
M  V30 10 1 10 11
M  V30 11 1 10 12
M  V30 12 2 11 13
M  V30 13 1 11 14
M  V30 14 1 12 15
M  V30 15 1 16 14 CFG=3
M  V30 16 1 15 17
M  V30 17 2 15 18
M  V30 18 1 16 19
M  V30 19 1 16 20
M  V30 20 2 17 21
M  V30 21 1 18 22
M  V30 22 2 19 23
M  V30 23 1 19 24
M  V30 24 1 20 25
M  V30 25 1 26 24 CFG=1
M  V30 26 1 25 27
M  V30 27 2 25 28
M  V30 28 1 26 29
M  V30 29 1 26 30
M  V30 30 2 27 31
M  V30 31 1 27 32
M  V30 32 1 28 33
M  V30 33 2 29 34
M  V30 34 1 29 35
M  V30 35 1 30 36
M  V30 36 1 31 37
M  V30 37 2 32 38
M  V30 38 1 39 35 CFG=3
M  V30 39 2 37 40
M  V30 40 1 39 41
M  V30 41 1 39 42
M  V30 42 2 41 43
M  V30 43 1 41 44
M  V30 44 1 42 45
M  V30 45 1 46 44 CFG=3
M  V30 46 2 45 47
M  V30 47 1 45 48
M  V30 48 1 46 49
M  V30 49 1 46 50
M  V30 50 1 47 51
M  V30 51 2 48 52
M  V30 52 2 49 53
M  V30 53 1 49 54
M  V30 54 1 50 55
M  V30 55 2 51 56
M  V30 56 1 57 54 CFG=3
M  V30 57 1 55 58
M  V30 58 1 55 59
M  V30 59 1 56 60
M  V30 60 1 57 61
M  V30 61 1 57 62
M  V30 62 2 61 63
M  V30 63 1 61 64
M  V30 64 1 62 65
M  V30 65 1 66 64 CFG=3
M  V30 66 1 65 67
M  V30 67 1 65 68
M  V30 68 1 66 69
M  V30 69 1 66 70
M  V30 70 2 69 71
M  V30 71 1 69 72
M  V30 72 1 70 73
M  V30 73 1 72 74
M  V30 74 1 72 75
M  V30 75 1 73 76
M  V30 76 1 74 77 CFG=3
M  V30 77 1 74 78
M  V30 78 1 75 79
M  V30 79 1 76 80
M  V30 80 2 77 81
M  V30 81 1 77 82
M  V30 82 1 80 83
M  V30 83 1 82 84
M  V30 84 2 83 85
M  V30 85 1 83 86
M  V30 86 1 84 87
M  V30 87 2 88 89
M  V30 88 1 89 90
M  V30 89 1 89 91
M  V30 90 1 5 6
M  V30 91 1 21 22
M  V30 92 1 31 33
M  V30 93 1 38 40
M  V30 94 1 52 56
M  V30 95 1 78 79
M  V30 END BOND
M  V30 BEGIN COLLECTION
M  V30 MDLV30/STERAC1 ATOMS=(9 5 10 16 26 39 46 57 66 74)
M  V30 END COLLECTION
M  V30 END CTAB
M  END
>  <Drug Name>
Leuprolide Acetate

>  <Carbon Count>
61

>  <SMILES String>
O=C(C(NC(C1CCC(N1)=O)=O)CC2=CN=CN2)NC(C(NC(CO)C(NC(C(NC(CC(C)C)C(NC(CC(C)C)C(NC(CCCNC(N)=N)C(N3C(CCC3)C(NCC)=O)=O)=O)=O)=O)CC4=CC=C(O)C=C4)=O)=O)CC5=CNC6=C5C=CC=C6.CC(O)=O

$$$$
Bacitracin
Actelion Java MolfileCreator 2.0

  0  0  0  0  0  0              0 V3000
M  V30 BEGIN CTAB
M  V30 COUNTS 100 103 0 0 0
M  V30 BEGIN ATOM
M  V30 1 S 11.4749 -1.7024 0.0 0
M  V30 2 C 11.9749 -0.8364 0.0 0
M  V30 3 C 10.4968 -1.4945 0.0 0
M  V30 4 N 11.3058 -0.0932 0.0 0
M  V30 5 C 12.9695 -0.7318 0.0 0 CFG=1
M  V30 6 C 10.3923 -0.5 0.0 0 CFG=2
M  V30 7 N 13.5572 -1.5408 0.0 0
M  V30 8 C 13.3762 0.1816 0.0 0 CFG=2
M  V30 9 C 9.5262 0.0 0.0 0
M  V30 10 C 14.3707 0.2861 0.0 0
M  V30 11 C 12.7884 0.9906 0.0 0
M  V30 12 O 9.5262 1.0 0.0 0
M  V30 13 N 8.6602 -0.5 0.0 0
M  V30 14 C 14.7774 1.1997 0.0 0
M  V30 15 C 7.7942 0.0 0.0 0 CFG=2
M  V30 16 C 6.9282 -0.5 0.0 0
M  V30 17 C 7.7942 0.9999 0.0 0
M  V30 18 O 6.9282 -1.4999 0.0 0
M  V30 19 N 6.0621 0.0 0.0 0
M  V30 20 C 6.9282 1.4999 0.0 0
M  V30 21 C 5.1961 -0.5 0.0 0 CFG=1
M  V30 22 C 6.0621 0.9999 0.0 0
M  V30 23 C 6.9282 2.4999 0.0 0
M  V30 24 C 4.3301 0.0 0.0 0
M  V30 25 C 5.1961 -1.5 0.0 0
M  V30 26 O 4.3301 1.0 0.0 0
M  V30 27 N 3.4641 -0.5 0.0 0
M  V30 28 C 6.0621 -2.0 0.0 0
M  V30 29 C 2.598 0.0 0.0 0 CFG=2
M  V30 30 C 6.0621 -3.0 0.0 0
M  V30 31 C 2.598 0.9999 0.0 0
M  V30 32 C 1.732 -0.5 0.0 0 CFG=2
M  V30 33 O 5.1961 -3.5 0.0 0
M  V30 34 O 6.9282 -3.5 0.0 0
M  V30 35 O 1.732 1.5 0.0 0
M  V30 36 N 3.4641 1.4999 0.0 0
M  V30 37 C 0.866 0.0 0.0 0
M  V30 38 C 1.732 -1.5 0.0 0
M  V30 39 C 3.4641 2.4999 0.0 0 CFG=2
M  V30 40 C 0.0 -0.5 0.0 0
M  V30 41 C 2.552 2.9101 0.0 0
M  V30 42 C 9.8409 5.3679 0.0 0
M  V30 43 O 1.7532 2.3085 0.0 0
M  V30 44 N 2.4097 3.8999 0.0 0
M  V30 45 C 9.8237 6.3677 0.0 0
M  V30 46 C 3.1691 4.5505 0.0 0 CFG=1
M  V30 47 C 10.7018 6.8462 0.0 0
M  V30 48 C 2.9444 5.5249 0.0 0
M  V30 49 C 4.119 4.2379 0.0 0
M  V30 50 C 10.7683 7.844 0.0 0
M  V30 51 O 3.6615 6.2219 0.0 0
M  V30 52 N 1.9768 5.7773 0.0 0
M  V30 53 C 4.2904 3.332 0.0 0
M  V30 54 N 9.9615 8.4348 0.0 0
M  V30 55 C 1.6714 6.7295 0.0 0 CFG=2
M  V30 56 C 5.307 2.8711 0.0 0
M  V30 57 C 9.0304 8.0702 0.0 0
M  V30 58 C 2.3117 7.4976 0.0 0
M  V30 59 C 0.6898 6.9205 0.0 0 CFG=2
M  V30 60 N 5.4774 1.9675 0.0 0
M  V30 61 O 8.8599 7.0848 0.0 0
M  V30 62 C 8.2759 8.7264 0.0 0 CFG=1
M  V30 63 O 1.947 8.4287 0.0 0
M  V30 64 N 3.3033 7.3685 0.0 0
M  V30 65 C 0.3645 7.8662 0.0 0
M  V30 66 C 0.0335 6.166 0.0 0
M  V30 67 N 8.5079 9.6991 0.0 0
M  V30 68 C 7.3236 8.421 0.0 0
M  V30 69 C 3.8771 8.1875 0.0 0 CFG=1
M  V30 70 C -0.617 8.0572 0.0 0
M  V30 71 C 7.8109 10.4162 0.0 0
M  V30 72 C 7.1121 7.4436 0.0 0
M  V30 73 C 3.4171 9.0755 0.0 0
M  V30 74 C 4.8183 8.087 0.0 0
M  V30 75 O 8.1035 11.3725 0.0 0
M  V30 76 C 6.832 10.212 0.0 0 CFG=2
M  V30 77 O 7.8527 6.7717 0.0 0
M  V30 78 N 6.0665 7.0102 0.0 0
M  V30 79 O 2.4175 9.1002 0.0 0
M  V30 80 N 3.9204 9.9396 0.0 0
M  V30 81 C 5.3162 7.2236 0.0 0
M  V30 82 N 6.4799 9.276 0.0 0
M  V30 83 C 6.1814 10.9714 0.0 0
M  V30 84 C 4.9197 9.9777 0.0 0 CFG=2
M  V30 85 C 6.226 7.3691 0.0 0
M  V30 86 C 4.7596 6.3928 0.0 0
M  V30 87 C 5.4873 9.1544 0.0 0
M  V30 88 C 6.5138 11.9146 0.0 0
M  V30 89 C 5.3677 10.8718 0.0 0
M  V30 90 C 6.7552 6.2597 0.0 0
M  V30 91 C 5.2009 5.4954 0.0 0
M  V30 92 O 5.1903 8.3104 0.0 0
M  V30 93 O 7.4968 12.0983 0.0 0
M  V30 94 O 5.8632 12.674 0.0 0
M  V30 95 C 4.8174 11.7067 0.0 0
M  V30 96 C 6.1987 5.4288 0.0 0
M  V30 97 N 5.1695 12.6427 0.0 0
M  V30 98 C 3.8185 11.7524 0.0 0
M  V30 99 C 4.3882 13.2668 0.0 0
M  V30 100 N 3.5532 12.7165 0.0 0
M  V30 END ATOM
M  V30 BEGIN BOND
M  V30 1 1 1 2
M  V30 2 1 1 3
M  V30 3 2 2 4
M  V30 4 1 2 5
M  V30 5 1 3 6
M  V30 6 1 5 7 CFG=3
M  V30 7 1 5 8
M  V30 8 1 6 9 CFG=1
M  V30 9 1 8 10
M  V30 10 1 8 11 CFG=1
M  V30 11 2 9 12
M  V30 12 1 9 13
M  V30 13 1 10 14
M  V30 14 1 15 13 CFG=3
M  V30 15 1 15 16
M  V30 16 1 15 17
M  V30 17 2 16 18
M  V30 18 1 16 19
M  V30 19 1 17 20
M  V30 20 1 21 19 CFG=3
M  V30 21 1 20 22
M  V30 22 1 20 23
M  V30 23 1 21 24
M  V30 24 1 21 25
M  V30 25 2 24 26
M  V30 26 1 24 27
M  V30 27 1 25 28
M  V30 28 1 29 27 CFG=1
M  V30 29 1 28 30
M  V30 30 1 29 31
M  V30 31 1 29 32
M  V30 32 2 30 33
M  V30 33 1 30 34
M  V30 34 2 31 35
M  V30 35 1 31 36
M  V30 36 1 32 37
M  V30 37 1 32 38 CFG=1
M  V30 38 1 39 36 CFG=3
M  V30 39 1 37 40
M  V30 40 1 39 41
M  V30 41 1 39 42
M  V30 42 2 41 43
M  V30 43 1 41 44
M  V30 44 1 42 45
M  V30 45 1 44 46
M  V30 46 1 45 47
M  V30 47 1 46 48
M  V30 48 1 46 49 CFG=1
M  V30 49 1 47 50
M  V30 50 2 48 51
M  V30 51 1 48 52
M  V30 52 1 49 53
M  V30 53 1 50 54
M  V30 54 1 55 52 CFG=1
M  V30 55 1 53 56
M  V30 56 1 54 57
M  V30 57 1 55 58
M  V30 58 1 55 59
M  V30 59 1 56 60
M  V30 60 2 57 61
M  V30 61 1 57 62
M  V30 62 2 58 63
M  V30 63 1 58 64
M  V30 64 1 59 65
M  V30 65 1 59 66 CFG=1
M  V30 66 1 62 67
M  V30 67 1 62 68 CFG=3
M  V30 68 1 64 69
M  V30 69 1 65 70
M  V30 70 1 67 71
M  V30 71 1 68 72
M  V30 72 1 69 73
M  V30 73 1 69 74 CFG=1
M  V30 74 2 71 75
M  V30 75 1 71 76
M  V30 76 2 72 77
M  V30 77 1 72 78
M  V30 78 2 73 79
M  V30 79 1 73 80
M  V30 80 1 74 81
M  V30 81 1 76 82
M  V30 82 1 76 83 CFG=3
M  V30 83 1 80 84
M  V30 84 2 81 85
M  V30 85 1 81 86
M  V30 86 1 82 87
M  V30 87 1 83 88
M  V30 88 1 84 89 CFG=1
M  V30 89 1 85 90
M  V30 90 2 86 91
M  V30 91 2 87 92
M  V30 92 2 88 93
M  V30 93 1 88 94
M  V30 94 1 89 95
M  V30 95 2 90 96
M  V30 96 1 95 97
M  V30 97 2 95 98
M  V30 98 2 97 99
M  V30 99 1 98 100
M  V30 100 1 4 6
M  V30 101 1 84 87
M  V30 102 1 91 96
M  V30 103 1 99 100
M  V30 END BOND
M  V30 BEGIN COLLECTION
M  V30 MDLV30/STEABS ATOMS=(15 5 6 8 15 21 29 32 39 46 55 59 62 69 76 84)
M  V30 END COLLECTION
M  V30 END CTAB
M  END
>  <Drug Name>
Bacitracin

>  <Carbon Count>
63

>  <SMILES String>
O=C(N[C@@H]1CC(O)=O)C(CC2=CN=CN2)NC([C@H](NC(C(NC([C@@H](CCCN)NC(C(CCCCNC1=O)NC(C(NC([C@@H](CCC(O)=O)NC(C(NC(C3CSC(C(C)C(C)CC)=N3)=O)CC(C)C)=O)=O)C(C)CC)=O)=O)=O)C(C)CC)=O)CC4=CC=CC=C4)=O

$$$$
Bleomycin
Actelion Java MolfileCreator 2.0

  0  0  0  0  0  0              0 V3000
M  V30 BEGIN CTAB
M  V30 COUNTS 96 101 0 0 0
M  V30 BEGIN ATOM
M  V30 1 S 22.9943 1.0065 0.0 0 CHG=1
M  V30 2 C 22.0432 1.3155 0.0 0
M  V30 3 C 23.7375 1.6757 0.0 0
M  V30 4 C 23.2022 0.0284 0.0 0
M  V30 5 C 21.3001 0.6464 0.0 0
M  V30 6 C 20.349 0.9554 0.0 0
M  V30 7 N 19.6059 0.2863 0.0 0
M  V30 8 C 18.6548 0.5953 0.0 0
M  V30 9 O 18.4469 1.5735 0.0 0
M  V30 10 C 17.9117 -0.0737 0.0 0
M  V30 11 N 16.9336 0.1341 0.0 0
M  V30 12 C 18.0162 -1.0682 0.0 0
M  V30 13 C 16.4336 -0.7318 0.0 0
M  V30 14 S 17.1027 -1.475 0.0 0
M  V30 15 C 15.439 -0.8364 0.0 0
M  V30 16 N 14.7699 -0.0932 0.0 0
M  V30 17 C 14.939 -1.7024 0.0 0
M  V30 18 C 13.8564 -0.5 0.0 0
M  V30 19 S 13.9609 -1.4945 0.0 0
M  V30 20 C 12.9903 0.0 0.0 0
M  V30 21 C 12.1243 -0.5 0.0 0
M  V30 22 N 11.2583 0.0 0.0 0
M  V30 23 C 10.3923 -0.5 0.0 0
M  V30 24 O 10.3923 -1.5 0.0 0
M  V30 25 C 9.5262 0.0 0.0 0 CFG=1
M  V30 26 N 8.6602 -0.5 0.0 0
M  V30 27 C 9.5262 1.0 0.0 0 CFG=2
M  V30 28 C 7.7942 0.0 0.0 0
M  V30 29 O 10.3923 1.5 0.0 0
M  V30 30 C 8.6602 1.5 0.0 0
M  V30 31 O 7.7942 0.9999 0.0 0
M  V30 32 C 6.9282 -0.5 0.0 0 CFG=2
M  V30 33 C 6.0621 0.0 0.0 0 CFG=2
M  V30 34 C 6.9282 -1.4999 0.0 0
M  V30 35 O 6.0621 0.9999 0.0 0
M  V30 36 C 5.1961 -0.5 0.0 0 CFG=2
M  V30 37 N 4.3301 0.0 0.0 0
M  V30 38 C 5.1961 -1.4999 0.0 0
M  V30 39 C 3.4641 -0.5 0.0 0
M  V30 40 O 3.4641 -1.5 0.0 0
M  V30 41 C 2.598 0.0 0.0 0 CFG=1
M  V30 42 N 2.598 0.9999 0.0 0
M  V30 43 C 1.732 -0.5 0.0 0 CFG=1
M  V30 44 C 3.4641 1.4999 0.0 0
M  V30 45 O 0.866 0.0 0.0 0
M  V30 46 C 1.732 -1.5 0.0 0
M  V30 47 O 4.3301 0.9999 0.0 0
M  V30 48 C 3.4641 2.4999 0.0 0
M  V30 49 C 0.0 -0.5 0.0 0
M  V30 50 N 0.923 -2.0877 0.0 0
M  V30 51 C 2.541 -2.0877 0.0 0
M  V30 52 N 2.598 3.0 0.0 0
M  V30 53 C 4.3301 3.0 0.0 0
M  V30 54 O 0.0 -1.4999 0.0 0
M  V30 55 C -0.866 0.0 0.0 0
M  V30 56 C 1.232 -3.0388 0.0 0
M  V30 57 N 2.232 -3.0388 0.0 0
M  V30 58 C 2.598 4.0 0.0 0
M  V30 59 C 4.3301 3.9999 0.0 0
M  V30 60 C 5.1961 2.4999 0.0 0
M  V30 61 C -0.866 -2.0 0.0 0
M  V30 62 O -0.866 0.9999 0.0 0
M  V30 63 C -1.732 -0.5 0.0 0
M  V30 64 N 3.4641 4.5 0.0 0
M  V30 65 C 1.732 4.5 0.0 0 CFG=1
M  V30 66 N 5.1961 4.5 0.0 0
M  V30 67 C -1.732 -1.5 0.0 0
M  V30 68 C -0.866 -3.0 0.0 0
M  V30 69 C -1.732 1.4999 0.0 0
M  V30 70 O -2.598 0.0 0.0 0
M  V30 71 N 1.732 5.5 0.0 0
M  V30 72 C 0.866 4.0 0.0 0
M  V30 73 O -2.598 -2.0 0.0 0
M  V30 74 O -1.732 -3.5 0.0 0
M  V30 75 O -2.598 1.0 0.0 0
M  V30 76 C -1.732 2.4999 0.0 0
M  V30 77 C 2.598 6.0 0.0 0
M  V30 78 C 0.866 2.9999 0.0 0
M  V30 79 C -3.4641 1.5 0.0 0
M  V30 80 O -0.866 2.9999 0.0 0
M  V30 81 C -2.598 3.0 0.0 0
M  V30 82 C 2.598 7.0 0.0 0 CFG=2
M  V30 83 O 0.0 2.5 0.0 0
M  V30 84 N 1.732 2.5 0.0 0
M  V30 85 C -3.4641 2.5 0.0 0
M  V30 86 C -4.3301 1.0 0.0 0
M  V30 87 O -2.598 4.0 0.0 0
M  V30 88 N 1.732 7.5 0.0 0
M  V30 89 C 3.4641 7.5 0.0 0
M  V30 90 O -4.3301 3.0 0.0 0
M  V30 91 O -5.1961 1.5 0.0 0
M  V30 92 C -3.4641 4.5 0.0 0
M  V30 93 O 4.3301 7.0 0.0 0
M  V30 94 N 3.4641 8.5 0.0 0
M  V30 95 O -4.3301 4.0 0.0 0
M  V30 96 N -3.4641 5.5 0.0 0
M  V30 END ATOM
M  V30 BEGIN BOND
M  V30 1 1 1 2
M  V30 2 1 1 3
M  V30 3 1 1 4
M  V30 4 1 2 5
M  V30 5 1 5 6
M  V30 6 1 6 7
M  V30 7 1 7 8
M  V30 8 2 8 9
M  V30 9 1 8 10
M  V30 10 1 10 11
M  V30 11 2 10 12
M  V30 12 2 11 13
M  V30 13 1 12 14
M  V30 14 1 13 15
M  V30 15 1 15 16
M  V30 16 2 15 17
M  V30 17 2 16 18
M  V30 18 1 17 19
M  V30 19 1 18 20
M  V30 20 1 20 21
M  V30 21 1 21 22
M  V30 22 1 22 23
M  V30 23 2 23 24
M  V30 24 1 23 25
M  V30 25 1 25 26 CFG=1
M  V30 26 1 25 27
M  V30 27 1 26 28
M  V30 28 1 27 29 CFG=1
M  V30 29 1 27 30
M  V30 30 2 28 31
M  V30 31 1 28 32
M  V30 32 1 32 33
M  V30 33 1 32 34 CFG=1
M  V30 34 1 33 35 CFG=1
M  V30 35 1 33 36
M  V30 36 1 36 37
M  V30 37 1 36 38 CFG=1
M  V30 38 1 37 39
M  V30 39 2 39 40
M  V30 40 1 39 41
M  V30 41 1 41 42 CFG=3
M  V30 42 1 41 43
M  V30 43 1 42 44
M  V30 44 1 43 45 CFG=3
M  V30 45 1 43 46
M  V30 46 2 44 47
M  V30 47 1 44 48
M  V30 48 1 45 49
M  V30 49 1 46 50
M  V30 50 2 46 51
M  V30 51 2 48 52
M  V30 52 1 48 53
M  V30 53 1 49 54
M  V30 54 1 49 55
M  V30 55 1 50 56
M  V30 56 1 51 57
M  V30 57 1 52 58
M  V30 58 2 53 59
M  V30 59 1 53 60
M  V30 60 1 54 61
M  V30 61 1 55 62
M  V30 62 1 55 63
M  V30 63 2 58 64
M  V30 64 1 58 65
M  V30 65 1 59 66
M  V30 66 1 61 67
M  V30 67 1 61 68
M  V30 68 1 62 69
M  V30 69 1 63 70
M  V30 70 1 65 71 CFG=3
M  V30 71 1 65 72
M  V30 72 1 67 73
M  V30 73 1 68 74
M  V30 74 1 69 75
M  V30 75 1 69 76
M  V30 76 1 71 77
M  V30 77 1 72 78
M  V30 78 1 75 79
M  V30 79 1 76 80
M  V30 80 1 76 81
M  V30 81 1 77 82
M  V30 82 2 78 83
M  V30 83 1 78 84
M  V30 84 1 79 85
M  V30 85 1 79 86
M  V30 86 1 81 87
M  V30 87 1 82 88 CFG=3
M  V30 88 1 82 89
M  V30 89 1 85 90
M  V30 90 1 86 91
M  V30 91 1 87 92
M  V30 92 2 89 93
M  V30 93 1 89 94
M  V30 94 2 92 95
M  V30 95 1 92 96
M  V30 96 1 13 14
M  V30 97 1 18 19
M  V30 98 2 56 57
M  V30 99 1 59 64
M  V30 100 1 63 67
M  V30 101 1 81 85
M  V30 END BOND
M  V30 BEGIN COLLECTION
M  V30 MDLV30/STEABS ATOMS=(9 25 27 32 33 36 41 43 65 82)
M  V30 END COLLECTION
M  V30 END CTAB
M  END
>  <Drug Name>
Bleomycin

>  <Carbon Count>
55

>  <SMILES String>
O=C(NCCC[S+](C)C)C1=CSC(C2=CSC(CCNC([C@@H](NC([C@@H](C)[C@H](O)[C@@H](C)NC([C@H](C(C3=CN=CN3)O[C@@H]4O[C@@H](CO)[C@@H](O)[C@H](O)[C@@H]4O[C@@H]5[C@@H](O)[C@@H](OC(N)=O)[C@H](O)[C@@H](CO)O5)NC(C6=C(C)C(N)=NC([C@@H](NC[C@H](N)C(N)=O)CC(N)=O)=N6)=O)=O)=O)[C@H](O)C)=O)=N2)=N1

$$$$
